3    
Image 0/21, Energy =   -93.4092025797 (+13.417 kcal/mol)
C       -0.7519862184   -0.8272338399    0.0000000000
N        0.0394753354    0.0434721365    0.0000000000
H        0.7125108830    0.7837617034    0.0000000000
3    
Image 1/21, Energy =   -93.4088615156 (+13.631 kcal/mol)
C       -0.6245342950   -0.9228898923    0.0000000000
N       -0.0143007229    0.0822472994    0.0000000000
H        0.6388279786    0.8407059997    0.0000000000
3    
Image 2/21, Energy =   -93.4056310422 (+15.658 kcal/mol)
C       -0.4329645686   -0.9977054108    0.0000000000
N       -0.1366342695    0.1443415171   -0.0000000000
H        0.5694972960    0.8534488571   -0.0000000000
3    
Image 3/21, Energy =   -93.3983150359 (+20.249 kcal/mol)
C       -0.3563541005   -0.9684942719   -0.0000000000
N       -0.2460487447    0.2143001949   -0.0000000000
H        0.6023014345    0.7542278898   -0.0000000000
3    
Image 4/21, Energy =   -93.3862550765 (+27.816 kcal/mol)
C       -0.2534333238   -0.9071680415   -0.0000000000
N       -0.3579132009    0.2858922817   -0.0000000000
H        0.6112904793    0.6212968144   -0.0000000000
3    
Image 5/21, Energy =   -93.3743494021 (+35.287 kcal/mol)
C       -0.1564747091   -0.8288078312   -0.0000000000
N       -0.4516128212    0.3352993113   -0.0000000000
H        0.6080466269    0.4935528357    0.0000000000
3    
Image 6/21, Energy =   -93.3639011085 (+41.844 kcal/mol)
C       -0.0844817243   -0.7468408895   -0.0000000000
N       -0.5437956268    0.3617998274   -0.0000000000
H        0.6282413537    0.3850915160    0.0000000000
3    
Image 7/21, Energy =   -93.3552129888 (+47.296 kcal/mol)
C       -0.0252881397   -0.6422516464   -0.0000000000
N       -0.6857178388    0.3490383094   -0.0000000000
H        0.7109784267    0.2932775301    0.0000000000
3    
Image 8/21, Energy =   -93.3573980292 (+45.924 kcal/mol)
C       -0.0096391851   -0.5955934927   -0.0000000000
N       -0.7477187725    0.3329386193   -0.0000000000
H        0.7573127702    0.2627304485    0.0000000000
3    
Image 9/21, Energy =   -93.3740918038 (+35.449 kcal/mol)
C        0.0080082442   -0.4876351604   -0.0000000000
N       -0.8692771688    0.2920633914   -0.0000000000
H        0.8612303729    0.1956478850    0.0000000000
3    
Image 10/21, Energy =   -93.4068934007 (+14.866 kcal/mol)
C        0.0156179905   -0.3111986247   -0.0000000000
N       -1.0136053638    0.2241438749   -0.0000000000
H        0.9979317655    0.0871586503    0.0000000000
3    
Image 11/21, Energy =   -93.4256456243 (+3.098 kcal/mol)
C        0.0213208686   -0.1452350134   -0.0000000000
N       -1.0956252580    0.1566715991   -0.0000000000
H        1.0742547264   -0.0113337415    0.0000000000
3    
Image 12/21, Energy =   -93.4305713570 (+0.007 kcal/mol)
C        0.0296700029   -0.0027993472    0.0000000000
N       -1.1187044048   -0.1431429208   -0.0000000000
H        1.0889972651    0.1459546675   -0.0000000000
3    
Image 13/21, Energy =   -93.4305546526 (+0.018 kcal/mol)
C        0.0308972624   -0.0050270973    0.0000000000
N       -1.1071940062   -0.2173387891    0.0000000000
H        1.0762534762    0.2223723072    0.0000000000
3    
Image 14/21, Energy =   -93.4305668340 (+0.010 kcal/mol)
C        0.0303356038    0.0024373046    0.0000000000
N       -1.0582164069   -0.3919403876    0.0000000000
H        1.0278320275    0.3894861446   -0.0000000000
3    
Image 15/21, Energy =   -93.4305829853 (+0.000 kcal/mol)
C        0.0250975687    0.0146419849    0.0000000000
N       -0.9948859532   -0.5329167617   -0.0000000000
H        0.9697646571    0.5182428059   -0.0000000000
3    
Image 16/21, Energy =   -93.4305820319 (+0.001 kcal/mol)
C        0.0227528867    0.0184485057    0.0000000000
N       -0.9246873447   -0.6466128123   -0.0000000000
H        0.9019245867    0.6281271031   -0.0000000000
3    
Image 17/21, Energy =   -93.4305832416 (+0.000 kcal/mol)
C        0.0217920010    0.0192452789   -0.0000000000
N       -0.8540160415   -0.7378629410    0.0000000000
H        0.8322247691    0.7185920419   -0.0000000000
3    
Image 18/21, Energy =   -93.4305801406 (+0.002 kcal/mol)
C        0.0264155552    0.0127954302   -0.0000000000
N       -0.9492855766   -0.6098817831    0.0000000000
H        0.9228504882    0.5970336028    0.0000000000
3    
Image 19/21, Energy =   -93.4305806633 (+0.002 kcal/mol)
C        0.0204014712    0.0209106277   -0.0000000000
N       -0.8736782364   -0.7145298695    0.0000000000
H        0.8532738600    0.6935803639    0.0000000000
3    
Image 20/21, Energy =   -93.4305823703 (+0.001 kcal/mol)
C        0.0194260556    0.0213642891    0.0000000000
N       -0.7589320377   -0.8347584640    0.0000000000
H        0.7395059821    0.8133941749    0.0000000000
