3    
Image 0/21, Energy =   -93.4092025797 (+13.416 kcal/mol)
C       -0.7519862184   -0.8272338399    0.0000000000
N        0.0394753354    0.0434721365    0.0000000000
H        0.7125108830    0.7837617034    0.0000000000
3    
Image 1/21, Energy =   -93.4064741931 (+15.128 kcal/mol)
C       -0.6770272020   -0.8576357419   -0.0000000000
N       -0.0785097866    0.1566431761    0.0000000000
H        0.7555404032    0.7009972137   -0.0000000000
3    
Image 2/21, Energy =   -93.4001739020 (+19.082 kcal/mol)
C       -0.5993638163   -0.8572327893    0.0000000000
N       -0.1689583780    0.2482248476   -0.0000000000
H        0.7683193967    0.6090114514   -0.0000000000
3    
Image 3/21, Energy =   -93.3911203895 (+24.763 kcal/mol)
C       -0.5034509942   -0.8388202563    0.0000000000
N       -0.2475021256    0.3266018172   -0.0000000000
H        0.7509457594    0.5122202309   -0.0000000000
3    
Image 4/21, Energy =   -93.3831235440 (+29.781 kcal/mol)
C       -0.4144018579   -0.8201318153    0.0000000000
N       -0.3026623453    0.3773383963   -0.0000000000
H        0.7170559030    0.4427981919   -0.0000000000
3    
Image 5/21, Energy =   -93.3773333350 (+33.414 kcal/mol)
C       -0.3188644978   -0.8099694213   -0.0000000000
N       -0.3707167302    0.3907616494   -0.0000000000
H        0.6895817643    0.4192112087   -0.0000000000
3    
Image 6/21, Energy =   -93.3671171015 (+39.825 kcal/mol)
C       -0.1637422242   -0.7935845637    0.0000000000
N       -0.5041084390    0.3589463644    0.0000000000
H        0.6678505298    0.4346417703    0.0000000000
3    
Image 7/21, Energy =   -93.3622506963 (+42.879 kcal/mol)
C       -0.1086784331   -0.7495852897    0.0000000000
N       -0.5555219301    0.3622238043    0.0000000000
H        0.6641994060    0.3873655276    0.0000000000
3    
Image 8/21, Energy =   -93.3556748731 (+47.005 kcal/mol)
C       -0.0621010489   -0.6945545298    0.0000000000
N       -0.6392623401    0.3518217813    0.0000000000
H        0.7013568177    0.3427368505    0.0000000000
3    
Image 9/21, Energy =   -93.3569886752 (+46.181 kcal/mol)
C       -0.0244205512   -0.6027182743   -0.0000000000
N       -0.7582278771    0.3278795047   -0.0000000000
H        0.7826467457    0.2748545518   -0.0000000000
3    
Image 10/21, Energy =   -93.3742216865 (+35.367 kcal/mol)
C        0.0075042456   -0.4928141720    0.0000000000
N       -0.8788549085    0.2776726776    0.0000000000
H        0.8713595143    0.2151533800   -0.0000000000
3    
Image 11/21, Energy =   -93.3989785210 (+19.832 kcal/mol)
C        0.0546326885   -0.3585079066    0.0000000000
N       -1.0060887242    0.1169326002   -0.0000000000
H        0.9514753665    0.2415880781    0.0000000000
3    
Image 12/21, Energy =   -93.4164325131 (+8.879 kcal/mol)
C        0.0834059167   -0.2312923571   -0.0000000000
N       -1.0690927241   -0.1208902939    0.0000000000
H        0.9856818811    0.3522037621    0.0000000000
3    
Image 13/21, Energy =   -93.4239886015 (+4.138 kcal/mol)
C        0.0889472469   -0.1446107401   -0.0000000000
N       -1.0541697153   -0.3224913494    0.0000000000
H        0.9652065067    0.4671071210    0.0000000000
3    
Image 14/21, Energy =   -93.4278331941 (+1.725 kcal/mol)
C        0.0805436854   -0.0684480691    0.0000000000
N       -0.9924074379   -0.5015524036   -0.0000000000
H        0.9118543755    0.5700001463   -0.0000000000
3    
Image 15/21, Energy =   -93.4293359038 (+0.782 kcal/mol)
C        0.0633905592   -0.0299336456    0.0000000000
N       -0.9224567516   -0.6271231975   -0.0000000000
H        0.8590689019    0.6570479757   -0.0000000000
3    
Image 16/21, Energy =   -93.4296178488 (+0.605 kcal/mol)
C        0.0471225126    0.0083609387    0.0000000000
N       -0.8372507265   -0.7418824495   -0.0000000000
H        0.7901312012    0.7335148801   -0.0000000000
3    
Image 17/21, Energy =   -93.4291302110 (+0.911 kcal/mol)
C        0.0701478639   -0.0445009398   -0.0000000000
N       -0.9249498184   -0.6461363294    0.0000000000
H        0.8548055899    0.6906282785    0.0000000000
3    
Image 18/21, Energy =   -93.4269141664 (+2.302 kcal/mol)
C        0.0906521748   -0.0835382882    0.0000000000
N       -0.9789476271   -0.5624682505    0.0000000000
H        0.8882826967    0.6460045623    0.0000000000
3    
Image 19/21, Energy =   -93.4294843743 (+0.689 kcal/mol)
C        0.0635417485   -0.0271173585   -0.0000000000
N       -0.8993727858   -0.6888655468    0.0000000000
H        0.8358353276    0.7159731867   -0.0000000000
3    
Image 20/21, Energy =   -93.4305823703 (+0.000 kcal/mol)
C        0.0194260556    0.0213642891    0.0000000000
N       -0.7589320377   -0.8347584640    0.0000000000
H        0.7395059821    0.8133941749    0.0000000000
