3    
Image 0/21, Energy =   -93.4092025797 (+13.416 kcal/mol)
C       -0.7519862184   -0.8272338399    0.0000000000
N        0.0394753354    0.0434721365    0.0000000000
H        0.7125108830    0.7837617034    0.0000000000
3    
Image 1/21, Energy =   -93.4065109586 (+15.105 kcal/mol)
C       -0.6784129004   -0.8607573785   -0.0000000000
N       -0.0807070216    0.1565556861    0.0000000000
H        0.7591209520    0.7042032558    0.0000000000
3    
Image 2/21, Energy =   -93.4001862028 (+19.074 kcal/mol)
C       -0.5991725725   -0.8569387698   -0.0000000000
N       -0.1683268031    0.2478733457   -0.0000000000
H        0.7674980112    0.6090672994   -0.0000000000
3    
Image 3/21, Energy =   -93.3912209978 (+24.700 kcal/mol)
C       -0.5109999625   -0.8356111939    0.0000000000
N       -0.2449568434    0.3279663687   -0.0000000000
H        0.7559547589    0.5076455054   -0.0000000000
3    
Image 4/21, Energy =   -93.3824281657 (+30.217 kcal/mol)
C       -0.4186170145   -0.8145258014    0.0000000000
N       -0.3149812389    0.3842470037   -0.0000000000
H        0.7335963746    0.4302800072   -0.0000000000
3    
Image 5/21, Energy =   -93.3733310266 (+35.926 kcal/mol)
C       -0.3259021158   -0.7806796494    0.0000000000
N       -0.3909889722    0.4203540841   -0.0000000000
H        0.7168908677    0.3603267116   -0.0000000000
3    
Image 6/21, Energy =   -93.3545567022 (+47.707 kcal/mol)
C       -0.2405473118   -0.7910776155   -0.0000000000
N       -0.5293059673    0.3744016576   -0.0000000000
H        0.7698530671    0.4166776042   -0.0000000000
3    
Image 7/21, Energy =   -93.3321487270 (+61.768 kcal/mol)
C       -0.1796459826   -0.7808147805   -0.0000000000
N       -0.6519504716    0.3230813183    0.0000000000
H        0.8315957865    0.4577354154    0.0000000000
3    
Image 8/21, Energy =   -93.3380325658 (+58.076 kcal/mol)
C       -0.1073065647   -0.7046556884   -0.0000000000
N       -0.7209590570    0.3179815617    0.0000000000
H        0.8282633062    0.3866766998   -0.0000000000
3    
Image 9/21, Energy =   -93.3565087231 (+46.482 kcal/mol)
C       -0.0413242366   -0.6038703874    0.0000000000
N       -0.7580389843    0.3400586745   -0.0000000000
H        0.7993630137    0.2638174822   -0.0000000000
3    
Image 10/21, Energy =   -93.3714222442 (+37.124 kcal/mol)
C        0.0311196851   -0.5016315242    0.0000000000
N       -0.8696255794    0.2518203443    0.0000000000
H        0.8385073541    0.2498157370    0.0000000000
3    
Image 11/21, Energy =   -93.3918745988 (+24.289 kcal/mol)
C        0.0822601856   -0.3879185597    0.0000000000
N       -0.9805813001    0.0865797725   -0.0000000000
H        0.8983257157    0.3013448046   -0.0000000000
3    
Image 12/21, Energy =   -93.4087480821 (+13.701 kcal/mol)
C        0.1133354123   -0.2766591540   -0.0000000000
N       -1.0358902433   -0.1298071945    0.0000000000
H        0.9225516174    0.4064725871   -0.0000000000
3    
Image 13/21, Energy =   -93.4184216779 (+7.631 kcal/mol)
C        0.1182315139   -0.1939824263   -0.0000000000
N       -1.0333907156   -0.3162268652    0.0000000000
H        0.9151554738    0.5102113218    0.0000000000
3    
Image 14/21, Energy =   -93.4251886452 (+3.385 kcal/mol)
C        0.1000212218   -0.1174166256    0.0000000000
N       -0.9987540596   -0.4970393385   -0.0000000000
H        0.8987281356    0.6144558617   -0.0000000000
3    
Image 15/21, Energy =   -93.4280393306 (+1.596 kcal/mol)
C        0.0792314104   -0.0664811236    0.0000000000
N       -0.9372525876   -0.6285069264   -0.0000000000
H        0.8580214227    0.6949857831   -0.0000000000
3    
Image 16/21, Energy =   -93.4290308435 (+0.974 kcal/mol)
C        0.0437050253   -0.0180443466    0.0000000000
N       -0.8555360312   -0.7625743301   -0.0000000000
H        0.8118315839    0.7806168533   -0.0000000000
3    
Image 17/21, Energy =   -93.4280423442 (+1.594 kcal/mol)
C        0.0880217562   -0.0601446034   -0.0000000000
N       -0.9122180600   -0.6413173379    0.0000000000
H        0.8241975518    0.7014591213   -0.0000000000
3    
Image 18/21, Energy =   -93.4234849136 (+4.454 kcal/mol)
C        0.1234865278   -0.1197772210    0.0000000000
N       -0.9589919637   -0.5336388339    0.0000000000
H        0.8355004153    0.6534142271    0.0000000000
3    
Image 19/21, Energy =   -93.4288673233 (+1.076 kcal/mol)
C        0.0782867331   -0.0426500816   -0.0000000000
N       -0.8885129626   -0.6802347344    0.0000000000
H        0.8102278262    0.7228815544   -0.0000000000
3    
Image 20/21, Energy =   -93.4305823703 (+0.000 kcal/mol)
C        0.0194260556    0.0213642891    0.0000000000
N       -0.7589320377   -0.8347584640    0.0000000000
H        0.7395059821    0.8133941749    0.0000000000
