3    
Image 0/21, Energy =   -93.4092025797 (+13.417 kcal/mol)
C       -0.7519862184   -0.8272338399    0.0000000000
N        0.0394753354    0.0434721365    0.0000000000
H        0.7125108830    0.7837617034    0.0000000000
3    
Image 1/21, Energy =   -93.4069098843 (+14.855 kcal/mol)
C       -0.6470852598   -0.8869598376   -0.0000000000
N       -0.0774762514    0.1445497809    0.0000000000
H        0.7245412750    0.7424420660   -0.0000000000
3    
Image 2/21, Energy =   -93.4020983335 (+17.875 kcal/mol)
C       -0.5009657109   -0.9350184588    0.0000000000
N       -0.1769245948    0.2041028062    0.0000000000
H        0.6778353642    0.7309544525   -0.0000000000
3    
Image 3/21, Energy =   -93.3970513660 (+21.042 kcal/mol)
C       -0.4009118819   -0.9406997196    0.0000000000
N       -0.2465517186    0.2380920959   -0.0000000000
H        0.6474051423    0.7026477369   -0.0000000000
3    
Image 4/21, Energy =   -93.3862840680 (+27.798 kcal/mol)
C       -0.2631088756   -0.9043340029    0.0000000000
N       -0.3543087007    0.2892855701   -0.0000000000
H        0.6173647900    0.6150696202   -0.0000000000
3    
Image 5/21, Energy =   -93.3743058023 (+35.315 kcal/mol)
C       -0.1548577563   -0.8291271232   -0.0000000000
N       -0.4523091651    0.3356143519    0.0000000000
H        0.6071481261    0.4935361898   -0.0000000000
3    
Image 6/21, Energy =   -93.3639811644 (+41.793 kcal/mol)
C       -0.0794051862   -0.7476045145   -0.0000000000
N       -0.5452568106    0.3575159517   -0.0000000000
H        0.6246418294    0.3901116292   -0.0000000000
3    
Image 7/21, Energy =   -93.3552430140 (+47.277 kcal/mol)
C       -0.0254993872   -0.6369224541   -0.0000000000
N       -0.6924978633    0.3489379651   -0.0000000000
H        0.7179625734    0.2880262420    0.0000000000
3    
Image 8/21, Energy =   -93.3570278583 (+46.157 kcal/mol)
C       -0.0179787930   -0.5989971110   -0.0000000000
N       -0.7376490602    0.3439772651   -0.0000000000
H        0.7555754818    0.2550689406    0.0000000000
3    
Image 9/21, Energy =   -93.3736076373 (+35.753 kcal/mol)
C       -0.0003194906   -0.4895568702   -0.0000000000
N       -0.8613181195    0.3071598876   -0.0000000000
H        0.8616090761    0.1824496045    0.0000000000
3    
Image 10/21, Energy =   -93.4066567382 (+15.014 kcal/mol)
C        0.0099588785   -0.3127348881   -0.0000000000
N       -1.0081647896    0.2431121801    0.0000000000
H        0.9981934266    0.0697024389    0.0000000000
3    
Image 11/21, Energy =   -93.4254482067 (+3.222 kcal/mol)
C        0.0180982183   -0.1475682861   -0.0000000000
N       -1.0905123011    0.1761077326   -0.0000000000
H        1.0723924847   -0.0284626530   -0.0000000000
3    
Image 12/21, Energy =   -93.4304068387 (+0.111 kcal/mol)
C        0.0253883613    0.0303991011    0.0000000000
N       -1.1161097540   -0.1536094534   -0.0000000000
H        1.0907050327    0.1232117329    0.0000000000
3    
Image 13/21, Energy =   -93.4303140102 (+0.169 kcal/mol)
C        0.0222565354    0.0390534167    0.0000000000
N       -1.1013154009   -0.2396990799    0.0000000000
H        1.0790367638    0.2006373899    0.0000000000
3    
Image 14/21, Energy =   -93.4304649348 (+0.074 kcal/mol)
C        0.0193564561    0.0314223467    0.0000000000
N       -1.0502767837   -0.4111946482    0.0000000000
H        1.0308934990    0.3797488687    0.0000000000
3    
Image 15/21, Energy =   -93.4305378987 (+0.028 kcal/mol)
C        0.0192063257    0.0260940352    0.0000000000
N       -0.9907500695   -0.5397007977   -0.0000000000
H        0.9715302630    0.5135729101   -0.0000000000
3    
Image 16/21, Energy =   -93.4305691943 (+0.009 kcal/mol)
C        0.0193295101    0.0225761298    0.0000000000
N       -0.9236443826   -0.6493992664   -0.0000000000
H        0.9043112796    0.6267868697   -0.0000000000
3    
Image 17/21, Energy =   -93.4305832416 (+0.000 kcal/mol)
C        0.0217920010    0.0192452789   -0.0000000000
N       -0.8540160415   -0.7378629410    0.0000000000
H        0.8322247691    0.7185920419   -0.0000000000
3    
Image 18/21, Energy =   -93.4305480021 (+0.022 kcal/mol)
C        0.0185737652    0.0257355067   -0.0000000000
N       -0.9490461080   -0.6088068919    0.0000000000
H        0.9304740647    0.5830227252    0.0000000000
3    
Image 19/21, Energy =   -93.4305716755 (+0.007 kcal/mol)
C        0.0184751139    0.0239105541   -0.0000000000
N       -0.8728052514   -0.7154397337    0.0000000000
H        0.8543315699    0.6914913772    0.0000000000
3    
Image 20/21, Energy =   -93.4305823703 (+0.001 kcal/mol)
C        0.0194260556    0.0213642891    0.0000000000
N       -0.7589320377   -0.8347584640    0.0000000000
H        0.7395059821    0.8133941749    0.0000000000
