3    
Image 0/21, Energy =   -93.4092025797 (+13.417 kcal/mol)
C       -0.7519862184   -0.8272338399    0.0000000000
N        0.0394753354    0.0434721365    0.0000000000
H        0.7125108830    0.7837617034    0.0000000000
3    
Image 1/21, Energy =   -93.4076690261 (+14.379 kcal/mol)
C       -0.6409420416   -0.8996305702   -0.0000000000
N       -0.0601966926    0.1252391132    0.0000000000
H        0.7011202019    0.7744319474   -0.0000000000
3    
Image 2/21, Energy =   -93.4035775576 (+16.946 kcal/mol)
C       -0.4836660519   -0.9566084331    0.0000000000
N       -0.1619416904    0.1815745929   -0.0000000000
H        0.6455479572    0.7750948761   -0.0000000000
3    
Image 3/21, Energy =   -93.3977878503 (+20.579 kcal/mol)
C       -0.3768413013   -0.9562819495    0.0000000000
N       -0.2461688456    0.2244487176   -0.0000000000
H        0.6229267704    0.7318706430   -0.0000000000
3    
Image 4/21, Energy =   -93.3862550765 (+27.816 kcal/mol)
C       -0.2534333238   -0.9071680415   -0.0000000000
N       -0.3579132009    0.2858922817   -0.0000000000
H        0.6112904793    0.6212968144   -0.0000000000
3    
Image 5/21, Energy =   -93.3742442373 (+35.353 kcal/mol)
C       -0.1529242024   -0.8295490946   -0.0000000000
N       -0.4540209483    0.3354135718   -0.0000000000
H        0.6069207898    0.4941619453   -0.0000000000
3    
Image 6/21, Energy =   -93.3639309752 (+41.825 kcal/mol)
C       -0.0826925500   -0.7479300392   -0.0000000000
N       -0.5452817290    0.3595130017   -0.0000000000
H        0.6279456769    0.3884493043    0.0000000000
3    
Image 7/21, Energy =   -93.3552257796 (+47.288 kcal/mol)
C       -0.0252479588   -0.6387152668   -0.0000000000
N       -0.6902589805    0.3487817248   -0.0000000000
H        0.7154743128    0.2899821184    0.0000000000
3    
Image 8/21, Energy =   -93.3571781216 (+46.062 kcal/mol)
C       -0.0140830124   -0.5979572220   -0.0000000000
N       -0.7426757867    0.3371051100   -0.0000000000
H        0.7567081956    0.2609074589    0.0000000000
3    
Image 9/21, Energy =   -93.3737527314 (+35.662 kcal/mol)
C        0.0013016918   -0.4900645214   -0.0000000000
N       -0.8638807475    0.3055822158   -0.0000000000
H        0.8625392363    0.1845411578    0.0000000000
3    
Image 10/21, Energy =   -93.4067245692 (+14.972 kcal/mol)
C        0.0120319739   -0.3126662283   -0.0000000000
N       -1.0104422907    0.2364876943   -0.0000000000
H        0.9983815663    0.0762647002    0.0000000000
3    
Image 11/21, Energy =   -93.4253898517 (+3.259 kcal/mol)
C        0.0187141932   -0.1493705676   -0.0000000000
N       -1.0924447745    0.1721385220    0.0000000000
H        1.0737054203   -0.0226828355   -0.0000000000
3    
Image 12/21, Energy =   -93.4305443529 (+0.024 kcal/mol)
C        0.0272163490    0.0165748727    0.0000000000
N       -1.1182665492   -0.1525103172   -0.0000000000
H        1.0910279840    0.1359409701    0.0000000000
3    
Image 13/21, Energy =   -93.4305535623 (+0.019 kcal/mol)
C        0.0265639106    0.0168029784    0.0000000000
N       -1.1051078836   -0.2289022885    0.0000000000
H        1.0785156713    0.2120987898    0.0000000000
3    
Image 14/21, Energy =   -93.4305718940 (+0.007 kcal/mol)
C        0.0248125086    0.0168370218    0.0000000000
N       -1.0544451840   -0.4022534373    0.0000000000
H        1.0295990095    0.3853976679    0.0000000000
3    
Image 15/21, Energy =   -93.4305788579 (+0.003 kcal/mol)
C        0.0236263686    0.0175724443    0.0000000000
N       -0.9939518490   -0.5346552112   -0.0000000000
H        0.9703047525    0.5170505152   -0.0000000000
3    
Image 16/21, Energy =   -93.4305820319 (+0.001 kcal/mol)
C        0.0227528867    0.0184485057    0.0000000000
N       -0.9246873447   -0.6466128123   -0.0000000000
H        0.9019245867    0.6281271031   -0.0000000000
3    
Image 17/21, Energy =   -93.4305832416 (+0.000 kcal/mol)
C        0.0217920010    0.0192452789   -0.0000000000
N       -0.8540160415   -0.7378629410    0.0000000000
H        0.8322247691    0.7185920419   -0.0000000000
3    
Image 18/21, Energy =   -93.4305787782 (+0.003 kcal/mol)
C        0.0220823875    0.0191422990   -0.0000000000
N       -0.9508167798   -0.6082297764    0.0000000000
H        0.9287290279    0.5890393208    0.0000000000
3    
Image 19/21, Energy =   -93.4305806633 (+0.002 kcal/mol)
C        0.0204014712    0.0209106277   -0.0000000000
N       -0.8736782364   -0.7145298695    0.0000000000
H        0.8532738600    0.6935803639    0.0000000000
3    
Image 20/21, Energy =   -93.4305823703 (+0.001 kcal/mol)
C        0.0194260556    0.0213642891    0.0000000000
N       -0.7589320377   -0.8347584640    0.0000000000
H        0.7395059821    0.8133941749    0.0000000000
