3    
Image 0/21, Energy =   -93.4092025797 (+13.417 kcal/mol)
C       -0.7519862184   -0.8272338399    0.0000000000
N        0.0394753354    0.0434721365    0.0000000000
H        0.7125108830    0.7837617034    0.0000000000
3    
Image 1/21, Energy =   -93.4062084408 (+15.295 kcal/mol)
C       -0.6545842473   -0.8738199239   -0.0000000000
N       -0.0893385644    0.1605197320   -0.0000000000
H        0.7439129610    0.7133223514   -0.0000000000
3    
Image 2/21, Energy =   -93.3998644051 (+19.276 kcal/mol)
C       -0.5200509014   -0.9051743237    0.0000000000
N       -0.1937819459    0.2357044727    0.0000000000
H        0.7137878258    0.6694940017    0.0000000000
3    
Image 3/21, Energy =   -93.3951258500 (+22.250 kcal/mol)
C       -0.4350909246   -0.9100083171    0.0000000000
N       -0.2511668933    0.2668077090   -0.0000000000
H        0.6862263242    0.6432281978   -0.0000000000
3    
Image 4/21, Energy =   -93.3854307301 (+28.334 kcal/mol)
C       -0.2964670760   -0.8878007127    0.0000000000
N       -0.3480191388    0.3101717504   -0.0000000000
H        0.6444499584    0.5776476399   -0.0000000000
3    
Image 5/21, Energy =   -93.3739625884 (+35.530 kcal/mol)
C       -0.1714336994   -0.8230759791   -0.0000000000
N       -0.4470111884    0.3478812222   -0.0000000000
H        0.6184315112    0.4752145989   -0.0000000000
3    
Image 6/21, Energy =   -93.3637453089 (+41.941 kcal/mol)
C       -0.0843110359   -0.7459633003   -0.0000000000
N       -0.5446645295    0.3640967835   -0.0000000000
H        0.6289644627    0.3818835464   -0.0000000000
3    
Image 7/21, Energy =   -93.3554213002 (+47.165 kcal/mol)
C       -0.0325983261   -0.6563837531   -0.0000000000
N       -0.6651549575    0.3556980427   -0.0000000000
H        0.6977308426    0.3007141651    0.0000000000
3    
Image 8/21, Energy =   -93.3569369145 (+46.214 kcal/mol)
C       -0.0188025987   -0.6005218862   -0.0000000000
N       -0.7362981175    0.3447192137   -0.0000000000
H        0.7550625497    0.2558430846    0.0000000000
3    
Image 9/21, Energy =   -93.3737975011 (+35.634 kcal/mol)
C        0.0031724581   -0.4886239139   -0.0000000000
N       -0.8645101406    0.3003801420    0.0000000000
H        0.8613310791    0.1882842009    0.0000000000
3    
Image 10/21, Energy =   -93.4059966126 (+15.428 kcal/mol)
C        0.0148549703   -0.3166036977   -0.0000000000
N       -1.0089039526    0.2301454021    0.0000000000
H        0.9940514765    0.0865209286   -0.0000000000
3    
Image 11/21, Energy =   -93.4238871040 (+4.202 kcal/mol)
C        0.0234827681   -0.1688972412   -0.0000000000
N       -1.0914458230    0.1491584754   -0.0000000000
H        1.0679514666    0.0197961255    0.0000000000
3    
Image 12/21, Energy =   -93.4305377740 (+0.029 kcal/mol)
C        0.0304545394   -0.0075971341    0.0000000000
N       -1.1198342117   -0.1553615956   -0.0000000000
H        1.0893652585    0.1629695975    0.0000000000
3    
Image 13/21, Energy =   -93.4305621188 (+0.013 kcal/mol)
C        0.0263033130    0.0068638723    0.0000000000
N       -1.1052554577   -0.2350118796    0.0000000000
H        1.0789325490    0.2281477557   -0.0000000000
3    
Image 14/21, Energy =   -93.4305728386 (+0.007 kcal/mol)
C        0.0245618713    0.0142765999    0.0000000000
N       -1.0517750048   -0.4090797106    0.0000000000
H        1.0271897736    0.3947864410    0.0000000000
3    
Image 15/21, Energy =   -93.4305809508 (+0.001 kcal/mol)
C        0.0240005734    0.0161790524    0.0000000000
N       -0.9925475634   -0.5373355365   -0.0000000000
H        0.9685375113    0.5211294481   -0.0000000000
3    
Image 16/21, Energy =   -93.4305820702 (+0.001 kcal/mol)
C        0.0225810595    0.0179980736   -0.0000000000
N       -0.9241005875   -0.6477997675   -0.0000000000
H        0.9015203160    0.6297715849   -0.0000000000
3    
Image 17/21, Energy =   -93.4305832416 (+0.000 kcal/mol)
C        0.0217920010    0.0192452789   -0.0000000000
N       -0.8540160415   -0.7378629410    0.0000000000
H        0.8322247691    0.7185920419   -0.0000000000
3    
Image 18/21, Energy =   -93.4304584897 (+0.078 kcal/mol)
C        0.0213854699    0.0129390069   -0.0000000000
N       -0.9535037964   -0.5992814016    0.0000000000
H        0.9321183852    0.5863049527    0.0000000000
3    
Image 19/21, Energy =   -93.4305824819 (+0.000 kcal/mol)
C        0.0218085032    0.0196261903   -0.0000000000
N       -0.8743895820   -0.7137348383    0.0000000000
H        0.8525866861    0.6940768663    0.0000000000
3    
Image 20/21, Energy =   -93.4305823703 (+0.001 kcal/mol)
C        0.0194260556    0.0213642891    0.0000000000
N       -0.7589320377   -0.8347584640    0.0000000000
H        0.7395059821    0.8133941749    0.0000000000
