3    
Image 0/21, Energy =   -93.4092025797 (+13.416 kcal/mol)
C       -0.7519862184   -0.8272338399    0.0000000000
N        0.0394753354    0.0434721365    0.0000000000
H        0.7125108830    0.7837617034    0.0000000000
3    
Image 1/21, Energy =   -93.4064609358 (+15.136 kcal/mol)
C       -0.6777062907   -0.8590898191   -0.0000000000
N       -0.0807716183    0.1575548619    0.0000000000
H        0.7584830065    0.7015421662   -0.0000000000
3    
Image 2/21, Energy =   -93.3986136474 (+20.061 kcal/mol)
C       -0.5752309916   -0.8559267348   -0.0000000000
N       -0.1834216670    0.2600653492    0.0000000000
H        0.7586437274    0.5958674688    0.0000000000
3    
Image 3/21, Energy =   -93.3896129418 (+25.709 kcal/mol)
C       -0.4519741606   -0.8596670131    0.0000000000
N       -0.2799568939    0.3245978896   -0.0000000000
H        0.7319154712    0.5350767354   -0.0000000000
3    
Image 4/21, Energy =   -93.3791082180 (+32.301 kcal/mol)
C       -0.2665677117   -0.8411119488    0.0000000000
N       -0.3826409493    0.3483782797   -0.0000000000
H        0.6492055108    0.4927451115   -0.0000000000
3    
Image 5/21, Energy =   -93.3645009883 (+41.467 kcal/mol)
C       -0.1102290077   -0.7476665206   -0.0000000000
N       -0.4904469875    0.3801500428   -0.0000000000
H        0.6006728812    0.3675237436   -0.0000000000
3    
Image 6/21, Energy =   -93.3597204767 (+44.467 kcal/mol)
C       -0.0484965869   -0.7114849272   -0.0000000000
N       -0.5659775042    0.3741102126    0.0000000000
H        0.6144679548    0.3373833990   -0.0000000000
3    
Image 7/21, Energy =   -93.3559235929 (+46.849 kcal/mol)
C        0.0076804190   -0.5938933524   -0.0000000000
N       -0.7380275967    0.3359526471    0.0000000000
H        0.7303331103    0.2579695833   -0.0000000000
3    
Image 8/21, Energy =   -93.3746167791 (+35.119 kcal/mol)
C        0.0141899082   -0.4778283366   -0.0000000000
N       -0.8715590079    0.3014239212   -0.0000000000
H        0.8573873881    0.1764263823    0.0000000000
3    
Image 9/21, Energy =   -93.4051144723 (+15.981 kcal/mol)
C        0.0290247151   -0.3227319117    0.0000000000
N       -1.0190161152    0.2083277339   -0.0000000000
H        0.9900228018    0.1144271093    0.0000000000
3    
Image 10/21, Energy =   -93.4170518801 (+8.491 kcal/mol)
C        0.0437733799   -0.2273302751    0.0000000000
N       -1.0681411614    0.0518695668   -0.0000000000
H        1.0243756256    0.1754912516    0.0000000000
3    
Image 11/21, Energy =   -93.4254716390 (+3.207 kcal/mol)
C        0.0585220448   -0.1319286384   -0.0000000000
N       -1.1172662076   -0.1045886002   -0.0000000000
H        1.0587284493    0.2365553939   -0.0000000000
3    
Image 12/21, Energy =   -93.4280786819 (+1.571 kcal/mol)
C        0.0563542752   -0.0919861354   -0.0000000000
N       -1.0966874690   -0.2341898829    0.0000000000
H        1.0403097464    0.3261978116   -0.0000000000
3    
Image 13/21, Energy =   -93.4290667035 (+0.951 kcal/mol)
C        0.0541865056   -0.0520436324    0.0000000000
N       -1.0761087305   -0.3637911655    0.0000000000
H        1.0218910435    0.4158402292    0.0000000000
3    
Image 14/21, Energy =   -93.4297670160 (+0.512 kcal/mol)
C        0.0387522209   -0.0214563026   -0.0000000000
N       -1.0079236954   -0.5330087534   -0.0000000000
H        0.9691632118    0.5544549726   -0.0000000000
3    
Image 15/21, Energy =   -93.4300880507 (+0.310 kcal/mol)
C        0.0323925706   -0.0002436502   -0.0000000000
N       -0.9287721752   -0.6617870330    0.0000000000
H        0.8963866285    0.6620105504    0.0000000000
3    
Image 16/21, Energy =   -93.4299414661 (+0.402 kcal/mol)
C        0.0154567972    0.0097764047    0.0000000000
N       -0.8350180898   -0.7702748677   -0.0000000000
H        0.8195661958    0.7604841639   -0.0000000000
3    
Image 17/21, Energy =   -93.4303358354 (+0.155 kcal/mol)
C        0.0425904773   -0.0066764723   -0.0000000000
N       -0.9143541379   -0.6552584013    0.0000000000
H        0.8717709075    0.6619148924    0.0000000000
3    
Image 18/21, Energy =   -93.4299359323 (+0.406 kcal/mol)
C        0.0482182347   -0.0204869863    0.0000000000
N       -0.9617756090   -0.5710955181    0.0000000000
H        0.9135430667    0.5915725048    0.0000000000
3    
Image 19/21, Energy =   -93.4297534362 (+0.520 kcal/mol)
C        0.0301915412   -0.0008059797   -0.0000000000
N       -0.8705990555   -0.6998147644    0.0000000000
H        0.8404137730    0.7006031155    0.0000000000
3    
Image 20/21, Energy =   -93.4305823703 (+0.000 kcal/mol)
C        0.0194260556    0.0213642891    0.0000000000
N       -0.7589320377   -0.8347584640    0.0000000000
H        0.7395059821    0.8133941749    0.0000000000
