3    
Image 0/21, Energy =   -93.4092025797 (+13.417 kcal/mol)
C       -0.7519862184   -0.8272338399    0.0000000000
N        0.0394753354    0.0434721365    0.0000000000
H        0.7125108830    0.7837617034    0.0000000000
3    
Image 1/21, Energy =   -93.4090957928 (+13.484 kcal/mol)
C       -0.5987085951   -0.9419130684    0.0000000000
N        0.0041585316    0.0674171410    0.0000000000
H        0.5945402929    0.8745554441    0.0000000000
3    
Image 2/21, Energy =   -93.4059661720 (+15.447 kcal/mol)
C       -0.4331776044   -1.0003380975    0.0000000000
N       -0.1293091782    0.1395162192   -0.0000000000
H        0.5623775966    0.8608833489   -0.0000000000
3    
Image 3/21, Energy =   -93.3983150359 (+20.249 kcal/mol)
C       -0.3563541005   -0.9684942719   -0.0000000000
N       -0.2460487447    0.2143001949   -0.0000000000
H        0.6023014345    0.7542278898   -0.0000000000
3    
Image 4/21, Energy =   -93.3862437963 (+27.823 kcal/mol)
C       -0.2540013452   -0.9068688673   -0.0000000000
N       -0.3575968376    0.2862553696   -0.0000000000
H        0.6115406076    0.6206369269   -0.0000000000
3    
Image 5/21, Energy =   -93.3742958533 (+35.321 kcal/mol)
C       -0.1600718516   -0.8284024314   -0.0000000000
N       -0.4506947574    0.3387139479   -0.0000000000
H        0.6107239197    0.4897460081    0.0000000000
3    
Image 6/21, Energy =   -93.3639011085 (+41.844 kcal/mol)
C       -0.0844817243   -0.7468408895   -0.0000000000
N       -0.5437956268    0.3617998274   -0.0000000000
H        0.6282413537    0.3850915160    0.0000000000
3    
Image 7/21, Energy =   -93.3552129888 (+47.296 kcal/mol)
C       -0.0252881397   -0.6422516464   -0.0000000000
N       -0.6857178388    0.3490383094   -0.0000000000
H        0.7109784267    0.2932775301    0.0000000000
3    
Image 8/21, Energy =   -93.3575576168 (+45.824 kcal/mol)
C       -0.0111892400   -0.5936644176   -0.0000000000
N       -0.7488148075    0.3338773899   -0.0000000000
H        0.7599598550    0.2598698857    0.0000000000
3    
Image 9/21, Energy =   -93.3744962602 (+35.195 kcal/mol)
C        0.0065826459   -0.4855760196   -0.0000000000
N       -0.8704469657    0.2936834000   -0.0000000000
H        0.8638412105    0.1919856384    0.0000000000
3    
Image 10/21, Energy =   -93.4069760003 (+14.814 kcal/mol)
C        0.0183530501   -0.3108054885   -0.0000000000
N       -1.0161368333    0.2151603571   -0.0000000000
H        0.9977509437    0.0957649837    0.0000000000
3    
Image 11/21, Energy =   -93.4258128809 (+2.993 kcal/mol)
C        0.0228998231   -0.1426352550   -0.0000000000
N       -1.0984350702    0.1406729192   -0.0000000000
H        1.0754682867    0.0020740204    0.0000000000
3    
Image 12/21, Energy =   -93.4305796424 (+0.002 kcal/mol)
C        0.0293601214   -0.0005102808    0.0000000000
N       -1.1218047473   -0.1257944641   -0.0000000000
H        1.0923947270    0.1263169327   -0.0000000000
3    
Image 13/21, Energy =   -93.4305803001 (+0.002 kcal/mol)
C        0.0277418438    0.0092092108    0.0000000000
N       -1.1060806241   -0.2247958248    0.0000000000
H        1.0782844407    0.2155844977    0.0000000000
3    
Image 14/21, Energy =   -93.4305821432 (+0.001 kcal/mol)
C        0.0264112307    0.0121815606    0.0000000000
N       -1.0568250290   -0.3962437960    0.0000000000
H        1.0303553783    0.3840362672   -0.0000000000
3    
Image 15/21, Energy =   -93.4305829853 (+0.000 kcal/mol)
C        0.0250975687    0.0146419849    0.0000000000
N       -0.9948859532   -0.5329167617   -0.0000000000
H        0.9697646571    0.5182428059   -0.0000000000
3    
Image 16/21, Energy =   -93.4305820319 (+0.001 kcal/mol)
C        0.0227528867    0.0184485057    0.0000000000
N       -0.9246873447   -0.6466128123   -0.0000000000
H        0.9019245867    0.6281271031   -0.0000000000
3    
Image 17/21, Energy =   -93.4305832416 (+0.000 kcal/mol)
C        0.0217920010    0.0192452789   -0.0000000000
N       -0.8540160415   -0.7378629410    0.0000000000
H        0.8322247691    0.7185920419   -0.0000000000
3    
Image 18/21, Energy =   -93.4305829162 (+0.000 kcal/mol)
C        0.0250702101    0.0148859664   -0.0000000000
N       -0.9465109084   -0.6144775475    0.0000000000
H        0.9214176791    0.5995347210    0.0000000000
3    
Image 19/21, Energy =   -93.4305806633 (+0.002 kcal/mol)
C        0.0204014712    0.0209106277   -0.0000000000
N       -0.8736782364   -0.7145298695    0.0000000000
H        0.8532738600    0.6935803639    0.0000000000
3    
Image 20/21, Energy =   -93.4305823703 (+0.001 kcal/mol)
C        0.0194260556    0.0213642891    0.0000000000
N       -0.7589320377   -0.8347584640    0.0000000000
H        0.7395059821    0.8133941749    0.0000000000
