3    
Image 0/21, Energy =   -93.4092025797 (+13.416 kcal/mol)
C       -0.7519862184   -0.8272338399    0.0000000000
N        0.0394753354    0.0434721365    0.0000000000
H        0.7125108830    0.7837617034    0.0000000000
3    
Image 1/21, Energy =   -93.4060124803 (+15.418 kcal/mol)
C       -0.6646751006   -0.8654761920   -0.0000000000
N       -0.0914651268    0.1658754124   -0.0000000000
H        0.7561395473    0.6996135350   -0.0000000000
3    
Image 2/21, Energy =   -93.3982946493 (+20.261 kcal/mol)
C       -0.5396539196   -0.8799503833   -0.0000000000
N       -0.2000895345    0.2586957492    0.0000000000
H        0.7397162472    0.6212687282    0.0000000000
3    
Image 3/21, Energy =   -93.3931830381 (+23.468 kcal/mol)
C       -0.4597408751   -0.8818475590    0.0000000000
N       -0.2559352495    0.2928697610    0.0000000000
H        0.7156580443    0.5889918508    0.0000000000
3    
Image 4/21, Energy =   -93.3838681087 (+29.314 kcal/mol)
C       -0.3236951401   -0.8644875404    0.0000000000
N       -0.3465002689    0.3328379701   -0.0000000000
H        0.6701763764    0.5316633751   -0.0000000000
3    
Image 5/21, Energy =   -93.3734361027 (+35.860 kcal/mol)
C       -0.1902029095   -0.8146513599    0.0000000000
N       -0.4442213986    0.3599720349   -0.0000000000
H        0.6344155696    0.4546940790   -0.0000000000
3    
Image 6/21, Energy =   -93.3636790741 (+41.982 kcal/mol)
C       -0.0968592486   -0.7436185238   -0.0000000000
N       -0.5401057350    0.3698009304   -0.0000000000
H        0.6369581239    0.3738316774   -0.0000000000
3    
Image 7/21, Energy =   -93.3562621488 (+46.637 kcal/mol)
C       -0.0438251107   -0.6726903729   -0.0000000000
N       -0.6374360116    0.3616752619   -0.0000000000
H        0.6812508796    0.3110354167   -0.0000000000
3    
Image 8/21, Energy =   -93.3569385756 (+46.212 kcal/mol)
C       -0.0182717284   -0.6016393932   -0.0000000000
N       -0.7388172089    0.3391434148   -0.0000000000
H        0.7570684007    0.2625267283    0.0000000000
3    
Image 9/21, Energy =   -93.3740009449 (+35.505 kcal/mol)
C        0.0037237580   -0.4894775795   -0.0000000000
N       -0.8679643112    0.2954691030    0.0000000000
H        0.8642470842    0.1940392367    0.0000000000
3    
Image 10/21, Energy =   -93.4054296040 (+15.784 kcal/mol)
C        0.0204692226   -0.3218460753   -0.0000000000
N       -1.0133317719    0.2053026801   -0.0000000000
H        0.9928756610    0.1165862991    0.0000000000
3    
Image 11/21, Energy =   -93.4212015804 (+5.887 kcal/mol)
C        0.0320453065   -0.1986786991    0.0000000000
N       -1.0874582091    0.1030681001   -0.0000000000
H        1.0554143839    0.0956495315    0.0000000000
3    
Image 12/21, Energy =   -93.4292866331 (+0.813 kcal/mol)
C        0.0401907962   -0.0685950951    0.0000000000
N       -1.1140441467   -0.1552616406   -0.0000000000
H        1.0738374669    0.2238797289    0.0000000000
3    
Image 13/21, Energy =   -93.4297903711 (+0.497 kcal/mol)
C        0.0419256874   -0.0502741202    0.0000000000
N       -1.1050896354   -0.2171118291    0.0000000000
H        1.0631440349    0.2674004947   -0.0000000000
3    
Image 14/21, Energy =   -93.4303610399 (+0.139 kcal/mol)
C        0.0385151458   -0.0181002139    0.0000000000
N       -1.0560883545   -0.3957941455    0.0000000000
H        1.0175502915    0.4138897349   -0.0000000000
3    
Image 15/21, Energy =   -93.4305019843 (+0.050 kcal/mol)
C        0.0344629423   -0.0025650934    0.0000000000
N       -0.9969380429   -0.5289784075   -0.0000000000
H        0.9624659625    0.5315266403   -0.0000000000
3    
Image 16/21, Energy =   -93.4305545182 (+0.017 kcal/mol)
C        0.0299699933    0.0091297064   -0.0000000000
N       -0.9256479514   -0.6430652374   -0.0000000000
H        0.8956803367    0.6339131414   -0.0000000000
3    
Image 17/21, Energy =   -93.4305705712 (+0.007 kcal/mol)
C        0.0254395953    0.0168728832   -0.0000000000
N       -0.8525069596   -0.7376946236    0.0000000000
H        0.8270712811    0.7208018161   -0.0000000000
3    
Image 18/21, Energy =   -93.4304652376 (+0.074 kcal/mol)
C        0.0359852026   -0.0025603691   -0.0000000000
N       -0.9617277341   -0.5937752769    0.0000000000
H        0.9257359643    0.5963132981    0.0000000000
3    
Image 19/21, Energy =   -93.4305605839 (+0.014 kcal/mol)
C        0.0286632439    0.0115006079   -0.0000000000
N       -0.8778453160   -0.7103909313    0.0000000000
H        0.8491891260    0.6988658398    0.0000000000
3    
Image 20/21, Energy =   -93.4305823703 (+0.000 kcal/mol)
C        0.0194260556    0.0213642891    0.0000000000
N       -0.7589320377   -0.8347584640    0.0000000000
H        0.7395059821    0.8133941749    0.0000000000
