3    
Image 0/21, Energy =   -93.4092025797 (+13.416 kcal/mol)
C       -0.7519862184   -0.8272338399    0.0000000000
N        0.0394753354    0.0434721365    0.0000000000
H        0.7125108830    0.7837617034    0.0000000000
3    
Image 1/21, Energy =   -93.4060456950 (+15.397 kcal/mol)
C       -0.6696478032   -0.8591231643   -0.0000000000
N       -0.0869747789    0.1651610220    0.0000000000
H        0.7566256848    0.6939698562   -0.0000000000
3    
Image 2/21, Energy =   -93.3975656568 (+20.718 kcal/mol)
C       -0.5505631645   -0.8660656198   -0.0000000000
N       -0.2004486072    0.2695829508    0.0000000000
H        0.7509987761    0.5964909167    0.0000000000
3    
Image 3/21, Energy =   -93.3921399281 (+24.123 kcal/mol)
C       -0.4725291024   -0.8642147063   -0.0000000000
N       -0.2523569239    0.3065569052    0.0000000000
H        0.7248714463    0.5576657936    0.0000000000
3    
Image 4/21, Energy =   -93.3826770642 (+30.061 kcal/mol)
C       -0.3362826437   -0.8506476294    0.0000000000
N       -0.3409272269    0.3513887194    0.0000000000
H        0.6771994716    0.4992682402   -0.0000000000
3    
Image 5/21, Energy =   -93.3732378953 (+35.984 kcal/mol)
C       -0.1997120799   -0.8088264475    0.0000000000
N       -0.4330185495    0.3697896286   -0.0000000000
H        0.6327254577    0.4390474447   -0.0000000000
3    
Image 6/21, Energy =   -93.3635685372 (+42.052 kcal/mol)
C       -0.0992638002   -0.7405515245   -0.0000000000
N       -0.5350195993    0.3786401418   -0.0000000000
H        0.6342785203    0.3619243357   -0.0000000000
3    
Image 7/21, Energy =   -93.3561283121 (+46.721 kcal/mol)
C       -0.0479574701   -0.6760037909   -0.0000000000
N       -0.6408818039    0.3653724501   -0.0000000000
H        0.6888325450    0.3106497264   -0.0000000000
3    
Image 8/21, Energy =   -93.3569058562 (+46.233 kcal/mol)
C       -0.0095591330   -0.5986770692   -0.0000000000
N       -0.7393248393    0.3362837357    0.0000000000
H        0.7488753618    0.2624180670    0.0000000000
3    
Image 9/21, Energy =   -93.3740968556 (+35.445 kcal/mol)
C        0.0108765618   -0.4855689639   -0.0000000000
N       -0.8690336358    0.2948660161   -0.0000000000
H        0.8581676779    0.1907288714   -0.0000000000
3    
Image 10/21, Energy =   -93.4040999050 (+16.618 kcal/mol)
C        0.0399078298   -0.3240618188   -0.0000000000
N       -1.0199950402    0.1886231228   -0.0000000000
H        0.9801072867    0.1354672103    0.0000000000
3    
Image 11/21, Energy =   -93.4181418526 (+7.807 kcal/mol)
C        0.0407147798   -0.2240969841    0.0000000000
N       -1.0750992537    0.0690679323   -0.0000000000
H        1.0343936367    0.1550599269    0.0000000000
3    
Image 12/21, Energy =   -93.4256576761 (+3.090 kcal/mol)
C        0.0657589009   -0.1150398055    0.0000000000
N       -1.1131458566   -0.1400064817   -0.0000000000
H        1.0473705870    0.2550757121    0.0000000000
3    
Image 13/21, Energy =   -93.4282807693 (+1.444 kcal/mol)
C        0.0538087740   -0.0886515690   -0.0000000000
N       -1.1009266756   -0.2119944447    0.0000000000
H        1.0470963588    0.3006690532   -0.0000000000
3    
Image 14/21, Energy =   -93.4291602069 (+0.892 kcal/mol)
C        0.0566530669   -0.0415360768   -0.0000000000
N       -1.0655121861   -0.3847490871    0.0000000000
H        1.0088358872    0.4262882254   -0.0000000000
3    
Image 15/21, Energy =   -93.4302680978 (+0.197 kcal/mol)
C        0.0441098988   -0.0162174888    0.0000000000
N       -0.9997182486   -0.5237577643   -0.0000000000
H        0.9555985196    0.5399649126   -0.0000000000
3    
Image 16/21, Energy =   -93.4303750137 (+0.130 kcal/mol)
C        0.0366314551    0.0021235830   -0.0000000000
N       -0.9340368610   -0.6422064801   -0.0000000000
H        0.8974076790    0.6400654933    0.0000000000
3    
Image 17/21, Energy =   -93.4305011971 (+0.051 kcal/mol)
C        0.0239276268    0.0111825374   -0.0000000000
N       -0.8531524339   -0.7397850788    0.0000000000
H        0.8292300216    0.7285860578   -0.0000000000
3    
Image 18/21, Energy =   -93.4302186227 (+0.228 kcal/mol)
C        0.0435774553   -0.0161258412    0.0000000000
N       -0.9600307977   -0.5846919000    0.0000000000
H        0.9164422469    0.6008046264    0.0000000000
3    
Image 19/21, Energy =   -93.4303295303 (+0.159 kcal/mol)
C        0.0303305542    0.0022587718   -0.0000000000
N       -0.8760500026   -0.7042773546    0.0000000000
H        0.8457267746    0.7019986935    0.0000000000
3    
Image 20/21, Energy =   -93.4305823703 (+0.000 kcal/mol)
C        0.0194260556    0.0213642891    0.0000000000
N       -0.7589320377   -0.8347584640    0.0000000000
H        0.7395059821    0.8133941749    0.0000000000
