3    
Image 0/21, Energy =   -93.4092025797 (+13.416 kcal/mol)
C       -0.7519862184   -0.8272338399    0.0000000000
N        0.0394753354    0.0434721365    0.0000000000
H        0.7125108830    0.7837617034    0.0000000000
3    
Image 1/21, Energy =   -93.4059982549 (+15.427 kcal/mol)
C       -0.6658636103   -0.8644357825   -0.0000000000
N       -0.0916109785    0.1661952737   -0.0000000000
H        0.7574749696    0.6982519743   -0.0000000000
3    
Image 2/21, Energy =   -93.3981036085 (+20.381 kcal/mol)
C       -0.5422901584   -0.8762429833   -0.0000000000
N       -0.2004713394    0.2612680534    0.0000000000
H        0.7427374393    0.6149876086    0.0000000000
3    
Image 3/21, Energy =   -93.3928930519 (+23.650 kcal/mol)
C       -0.4627300714   -0.8776589245    0.0000000000
N       -0.2569217317    0.2961163428    0.0000000000
H        0.7196348802    0.5815549885    0.0000000000
3    
Image 4/21, Energy =   -93.3835180119 (+29.533 kcal/mol)
C       -0.3278626662   -0.8581177460    0.0000000000
N       -0.3463238618    0.3332753804    0.0000000000
H        0.6741698354    0.5248552002   -0.0000000000
3    
Image 5/21, Energy =   -93.3733588738 (+35.908 kcal/mol)
C       -0.1931151026   -0.8128654328    0.0000000000
N       -0.4433244595    0.3613117762   -0.0000000000
H        0.6364315640    0.4515675213   -0.0000000000
3    
Image 6/21, Energy =   -93.3635745390 (+42.048 kcal/mol)
C       -0.0997159427   -0.7409165087   -0.0000000000
N       -0.5381905668    0.3685774131   -0.0000000000
H        0.6378999564    0.3723528244   -0.0000000000
3    
Image 7/21, Energy =   -93.3561198821 (+46.726 kcal/mol)
C       -0.0465603296   -0.6698671235   -0.0000000000
N       -0.6352418378    0.3590856339   -0.0000000000
H        0.6817930665    0.3108012395   -0.0000000000
3    
Image 8/21, Energy =   -93.3569046975 (+46.233 kcal/mol)
C       -0.0186736633   -0.6004213908   -0.0000000000
N       -0.7382498260    0.3369563354   -0.0000000000
H        0.7569057228    0.2634942258    0.0000000000
3    
Image 9/21, Energy =   -93.3740377705 (+35.482 kcal/mol)
C        0.0030003850   -0.4886689576   -0.0000000000
N       -0.8677260765    0.2941750566    0.0000000000
H        0.8647333723    0.1945235460   -0.0000000000
3    
Image 10/21, Energy =   -93.4053683941 (+15.822 kcal/mol)
C        0.0204153241   -0.3217450827   -0.0000000000
N       -1.0134426788    0.1998034670   -0.0000000000
H        0.9930417064    0.1219813066    0.0000000000
3    
Image 11/21, Energy =   -93.4206165709 (+6.254 kcal/mol)
C        0.0330854409   -0.2040773761    0.0000000000
N       -1.0850453160    0.0948207633   -0.0000000000
H        1.0519633967    0.1092931690    0.0000000000
3    
Image 12/21, Energy =   -93.4288568543 (+1.083 kcal/mol)
C        0.0405197895   -0.0786506498    0.0000000000
N       -1.1110265363   -0.1555386692   -0.0000000000
H        1.0704903415    0.2342139745    0.0000000000
3    
Image 13/21, Energy =   -93.4294699428 (+0.698 kcal/mol)
C        0.0425256111   -0.0605184542   -0.0000000000
N       -1.1024460648   -0.2131830663    0.0000000000
H        1.0599004455    0.2737183516   -0.0000000000
3    
Image 14/21, Energy =   -93.4302176863 (+0.229 kcal/mol)
C        0.0385970235   -0.0246696696    0.0000000000
N       -1.0547422521   -0.3926821890    0.0000000000
H        1.0161223069    0.4173491005   -0.0000000000
3    
Image 15/21, Energy =   -93.4304623280 (+0.075 kcal/mol)
C        0.0356712377   -0.0062056773    0.0000000000
N       -0.9970407832   -0.5270510534   -0.0000000000
H        0.9613602744    0.5332415007   -0.0000000000
3    
Image 16/21, Energy =   -93.4305380731 (+0.028 kcal/mol)
C        0.0304695835    0.0069829546   -0.0000000000
N       -0.9256516826   -0.6419314564   -0.0000000000
H        0.8951845471    0.6349273337   -0.0000000000
3    
Image 17/21, Energy =   -93.4305697280 (+0.008 kcal/mol)
C        0.0259171306    0.0163459408   -0.0000000000
N       -0.8525169091   -0.7379193403    0.0000000000
H        0.8266040783    0.7215542961   -0.0000000000
3    
Image 18/21, Energy =   -93.4304392633 (+0.090 kcal/mol)
C        0.0373835212   -0.0055619440    0.0000000000
N       -0.9613860889   -0.5919115428    0.0000000000
H        0.9239943698    0.5974538267    0.0000000000
3    
Image 19/21, Energy =   -93.4305443880 (+0.024 kcal/mol)
C        0.0302506362    0.0103751735   -0.0000000000
N       -0.8787430326   -0.7099263382    0.0000000000
H        0.8484994614    0.6995278316    0.0000000000
3    
Image 20/21, Energy =   -93.4305823703 (+0.000 kcal/mol)
C        0.0194260556    0.0213642891    0.0000000000
N       -0.7589320377   -0.8347584640    0.0000000000
H        0.7395059821    0.8133941749    0.0000000000
