3    
Image 0/21, Energy =   -93.4092025797 (+13.416 kcal/mol)
C       -0.7519862184   -0.8272338399    0.0000000000
N        0.0394753354    0.0434721365    0.0000000000
H        0.7125108830    0.7837617034    0.0000000000
3    
Image 1/21, Energy =   -93.4064738718 (+15.128 kcal/mol)
C       -0.6773241191   -0.8581250153   -0.0000000000
N       -0.0792040667    0.1570015329    0.0000000000
H        0.7565323922    0.7011292409   -0.0000000000
3    
Image 2/21, Energy =   -93.4001572787 (+19.092 kcal/mol)
C       -0.5987311050   -0.8572102450    0.0000000000
N       -0.1690923845    0.2481719951   -0.0000000000
H        0.7678200724    0.6090421203   -0.0000000000
3    
Image 3/21, Energy =   -93.3910977592 (+24.777 kcal/mol)
C       -0.5003832369   -0.8413093556    0.0000000000
N       -0.2479786570    0.3268030353   -0.0000000000
H        0.7483523936    0.5145088293   -0.0000000000
3    
Image 4/21, Energy =   -93.3834711665 (+29.563 kcal/mol)
C       -0.4127511736   -0.8291693628    0.0000000000
N       -0.3043904781    0.3756345905   -0.0000000000
H        0.7171314184    0.4535408981   -0.0000000000
3    
Image 5/21, Energy =   -93.3783876255 (+32.753 kcal/mol)
C       -0.3157992255   -0.8193491471   -0.0000000000
N       -0.3664024494    0.3796116652   -0.0000000000
H        0.6822023015    0.4397424247   -0.0000000000
3    
Image 6/21, Energy =   -93.3698282878 (+38.124 kcal/mol)
C       -0.1482835603   -0.7916277407    0.0000000000
N       -0.4828673928    0.3584649950    0.0000000000
H        0.6311502645    0.4331673659    0.0000000000
3    
Image 7/21, Energy =   -93.3637477046 (+41.939 kcal/mol)
C       -0.0897497101   -0.7413482187    0.0000000000
N       -0.5358950426    0.3705516084    0.0000000000
H        0.6256432094    0.3708009251    0.0000000000
3    
Image 8/21, Energy =   -93.3570520874 (+46.141 kcal/mol)
C       -0.0488849630   -0.6847552791   -0.0000000000
N       -0.6235632247    0.3569296364    0.0000000000
H        0.6724410959    0.3278312545    0.0000000000
3    
Image 9/21, Energy =   -93.3574293959 (+45.904 kcal/mol)
C       -0.0161579173   -0.5976067027   -0.0000000000
N       -0.7539203507    0.3264578271   -0.0000000000
H        0.7700752830    0.2711676152   -0.0000000000
3    
Image 10/21, Energy =   -93.3747366016 (+35.044 kcal/mol)
C        0.0059856064   -0.4887255812   -0.0000000000
N       -0.8775419928    0.2834455434   -0.0000000000
H        0.8715678390    0.2052943832   -0.0000000000
3    
Image 11/21, Energy =   -93.4011309635 (+18.481 kcal/mol)
C        0.0480403498   -0.3467805756    0.0000000000
N       -1.0120260882    0.1297476975   -0.0000000000
H        0.9640080615    0.2170480490    0.0000000000
3    
Image 12/21, Energy =   -93.4188807723 (+7.343 kcal/mol)
C        0.0768072225   -0.2113938449   -0.0000000000
N       -1.0793616494   -0.1174469523   -0.0000000000
H        1.0025485894    0.3288652805    0.0000000000
3    
Image 13/21, Energy =   -93.4255901356 (+3.133 kcal/mol)
C        0.0804037668   -0.1256479813   -0.0000000000
N       -1.0610414169   -0.3254186748    0.0000000000
H        0.9806181180    0.4510730956    0.0000000000
3    
Image 14/21, Energy =   -93.4287200060 (+1.169 kcal/mol)
C        0.0692330369   -0.0571053136    0.0000000000
N       -0.9942714870   -0.5047427134   -0.0000000000
H        0.9250286242    0.5618463515   -0.0000000000
3    
Image 15/21, Energy =   -93.4297636526 (+0.514 kcal/mol)
C        0.0569365120   -0.0213630307    0.0000000000
N       -0.9253761528   -0.6299724680   -0.0000000000
H        0.8684431156    0.6513241798   -0.0000000000
3    
Image 16/21, Energy =   -93.4297900053 (+0.497 kcal/mol)
C        0.0380607334    0.0093898297    0.0000000000
N       -0.8289841864   -0.7431177342   -0.0000000000
H        0.7909271981    0.7337195203   -0.0000000000
3    
Image 17/21, Energy =   -93.4295043029 (+0.676 kcal/mol)
C        0.0615115661   -0.0379106108   -0.0000000000
N       -0.9230918163   -0.6461162561    0.0000000000
H        0.8615842350    0.6840156693    0.0000000000
3    
Image 18/21, Energy =   -93.4281262476 (+1.541 kcal/mol)
C        0.0739248793   -0.0709405716    0.0000000000
N       -0.9723103517   -0.5668396052    0.0000000000
H        0.8983716841    0.6377770001    0.0000000000
3    
Image 19/21, Energy =   -93.4298441775 (+0.463 kcal/mol)
C        0.0516132238   -0.0250842920   -0.0000000000
N       -0.8933388111   -0.6867402244    0.0000000000
H        0.8417305482    0.7118126469   -0.0000000000
3    
Image 20/21, Energy =   -93.4305823703 (+0.000 kcal/mol)
C        0.0194260556    0.0213642891    0.0000000000
N       -0.7589320377   -0.8347584640    0.0000000000
H        0.7395059821    0.8133941749    0.0000000000
