3    
Image 0/21, Energy =   -93.4092025797 (+13.417 kcal/mol)
C       -0.7519862184   -0.8272338399    0.0000000000
N        0.0394753354    0.0434721365    0.0000000000
H        0.7125108830    0.7837617034    0.0000000000
3    
Image 1/21, Energy =   -93.4090224901 (+13.530 kcal/mol)
C       -0.6120403810   -0.9316493717    0.0000000000
N       -0.0022592443    0.0727273816    0.0000000000
H        0.6142920191    0.8589878646    0.0000000000
3    
Image 2/21, Energy =   -93.4059795705 (+15.439 kcal/mol)
C       -0.4255850928   -1.0029486561    0.0000000000
N       -0.1294030527    0.1382247621   -0.0000000000
H        0.5548772602    0.8648023500   -0.0000000000
3    
Image 3/21, Energy =   -93.3983150359 (+20.249 kcal/mol)
C       -0.3563541005   -0.9684942719   -0.0000000000
N       -0.2460487447    0.2143001949   -0.0000000000
H        0.6023014345    0.7542278898   -0.0000000000
3    
Image 4/21, Energy =   -93.3862550765 (+27.816 kcal/mol)
C       -0.2534333238   -0.9071680415   -0.0000000000
N       -0.3579132009    0.2858922817   -0.0000000000
H        0.6112904793    0.6212968144   -0.0000000000
3    
Image 5/21, Energy =   -93.3743262093 (+35.302 kcal/mol)
C       -0.1571083654   -0.8294487807   -0.0000000000
N       -0.4517847818    0.3371319076   -0.0000000000
H        0.6088490478    0.4923698941    0.0000000000
3    
Image 6/21, Energy =   -93.3639011085 (+41.844 kcal/mol)
C       -0.0844817243   -0.7468408895   -0.0000000000
N       -0.5437956268    0.3617998274   -0.0000000000
H        0.6282413537    0.3850915160    0.0000000000
3    
Image 7/21, Energy =   -93.3552129888 (+47.296 kcal/mol)
C       -0.0252881397   -0.6422516464   -0.0000000000
N       -0.6857178388    0.3490383094   -0.0000000000
H        0.7109784267    0.2932775301    0.0000000000
3    
Image 8/21, Energy =   -93.3575576168 (+45.824 kcal/mol)
C       -0.0111892400   -0.5936644176   -0.0000000000
N       -0.7488148075    0.3338773899   -0.0000000000
H        0.7599598550    0.2598698857    0.0000000000
3    
Image 9/21, Energy =   -93.3742414063 (+35.355 kcal/mol)
C        0.0085961717   -0.4870182208   -0.0000000000
N       -0.8705173254    0.2906027644   -0.0000000000
H        0.8618892610    0.1965005040    0.0000000000
3    
Image 10/21, Energy =   -93.4069754532 (+14.814 kcal/mol)
C        0.0169032291   -0.3107127812   -0.0000000000
N       -1.0148731009    0.2207233611   -0.0000000000
H        0.9979174221    0.0901009274    0.0000000000
3    
Image 11/21, Energy =   -93.4258816870 (+2.950 kcal/mol)
C        0.0220631345   -0.1416972797   -0.0000000000
N       -1.0975189702    0.1492637592   -0.0000000000
H        1.0753943258   -0.0074589001    0.0000000000
3    
Image 12/21, Energy =   -93.4305738975 (+0.006 kcal/mol)
C        0.0296059109   -0.0022926575    0.0000000000
N       -1.1199898882   -0.1331635435   -0.0000000000
H        1.0903411107    0.1354694740   -0.0000000000
3    
Image 13/21, Energy =   -93.4305787567 (+0.003 kcal/mol)
C        0.0291891733    0.0020421457    0.0000000000
N       -1.1061362167   -0.2208802074    0.0000000000
H        1.0768988161    0.2188407714    0.0000000000
3    
Image 14/21, Energy =   -93.4305793081 (+0.002 kcal/mol)
C        0.0288826087    0.0069622912    0.0000000000
N       -1.0578536772   -0.3935357714    0.0000000000
H        1.0289178635    0.3865526592   -0.0000000000
3    
Image 15/21, Energy =   -93.4305829853 (+0.000 kcal/mol)
C        0.0250975687    0.0146419849    0.0000000000
N       -0.9948859532   -0.5329167617   -0.0000000000
H        0.9697646571    0.5182428059   -0.0000000000
3    
Image 16/21, Energy =   -93.4305820319 (+0.001 kcal/mol)
C        0.0227528867    0.0184485057    0.0000000000
N       -0.9246873447   -0.6466128123   -0.0000000000
H        0.9019245867    0.6281271031   -0.0000000000
3    
Image 17/21, Energy =   -93.4305832416 (+0.000 kcal/mol)
C        0.0217920010    0.0192452789   -0.0000000000
N       -0.8540160415   -0.7378629410    0.0000000000
H        0.8322247691    0.7185920419   -0.0000000000
3    
Image 18/21, Energy =   -93.4305829162 (+0.000 kcal/mol)
C        0.0250702101    0.0148859664   -0.0000000000
N       -0.9465109084   -0.6144775475    0.0000000000
H        0.9214176791    0.5995347210    0.0000000000
3    
Image 19/21, Energy =   -93.4305806633 (+0.002 kcal/mol)
C        0.0204014712    0.0209106277   -0.0000000000
N       -0.8736782364   -0.7145298695    0.0000000000
H        0.8532738600    0.6935803639    0.0000000000
3    
Image 20/21, Energy =   -93.4305823703 (+0.001 kcal/mol)
C        0.0194260556    0.0213642891    0.0000000000
N       -0.7589320377   -0.8347584640    0.0000000000
H        0.7395059821    0.8133941749    0.0000000000
