3    
Image 0/21, Energy =   -93.4092025797 (+13.416 kcal/mol)
C       -0.7519862184   -0.8272338399    0.0000000000
N        0.0394753354    0.0434721365    0.0000000000
H        0.7125108830    0.7837617034    0.0000000000
3    
Image 1/21, Energy =   -93.4060998565 (+15.363 kcal/mol)
C       -0.6589289282   -0.8700659853   -0.0000000000
N       -0.0904257482    0.1635548374   -0.0000000000
H        0.7493488963    0.7065293886   -0.0000000000
3    
Image 2/21, Energy =   -93.3991630683 (+19.716 kcal/mol)
C       -0.5280590734   -0.8946695726    0.0000000000
N       -0.1971392200    0.2460194609    0.0000000000
H        0.7251598064    0.6486700436    0.0000000000
3    
Image 3/21, Energy =   -93.3943300276 (+22.749 kcal/mol)
C       -0.4458214443   -0.8980903778    0.0000000000
N       -0.2528426813    0.2776679706    0.0000000000
H        0.6986393268    0.6204442115   -0.0000000000
3    
Image 4/21, Energy =   -93.3848267975 (+28.712 kcal/mol)
C       -0.3078077656   -0.8797011204    0.0000000000
N       -0.3470009417    0.3204313264   -0.0000000000
H        0.6547796424    0.5592867971   -0.0000000000
3    
Image 5/21, Energy =   -93.3737694077 (+35.651 kcal/mol)
C       -0.1789573868   -0.8199447435   -0.0000000000
N       -0.4457185605    0.3529403854   -0.0000000000
H        0.6246644167    0.4670223095   -0.0000000000
3    
Image 6/21, Energy =   -93.3638006308 (+41.906 kcal/mol)
C       -0.0891132808   -0.7457967005   -0.0000000000
N       -0.5421830121    0.3665664044   -0.0000000000
H        0.6312874053    0.3792458565   -0.0000000000
3    
Image 7/21, Energy =   -93.3556209460 (+47.039 kcal/mol)
C       -0.0352986065   -0.6634149129   -0.0000000000
N       -0.6566825183    0.3592217463   -0.0000000000
H        0.6919637651    0.3042179753   -0.0000000000
3    
Image 8/21, Energy =   -93.3569039678 (+46.234 kcal/mol)
C       -0.0185467442   -0.6018977960   -0.0000000000
N       -0.7369718631    0.3433785594   -0.0000000000
H        0.7554876439    0.2585557529    0.0000000000
3    
Image 9/21, Energy =   -93.3737865519 (+35.640 kcal/mol)
C        0.0046679531   -0.4900887364   -0.0000000000
N       -0.8663356059    0.2991357260    0.0000000000
H        0.8616672966    0.1909891202    0.0000000000
3    
Image 10/21, Energy =   -93.4057347991 (+15.592 kcal/mol)
C        0.0177530600   -0.3189200646   -0.0000000000
N       -1.0106946529    0.2216022879    0.0000000000
H        0.9929487973    0.0973727394   -0.0000000000
3    
Image 11/21, Energy =   -93.4230015075 (+4.757 kcal/mol)
C        0.0242608214   -0.1789463918    0.0000000000
N       -1.0891146559    0.1311621514   -0.0000000000
H        1.0648471861    0.0478337607    0.0000000000
3    
Image 12/21, Energy =   -93.4302837727 (+0.187 kcal/mol)
C        0.0336630902   -0.0307393965    0.0000000000
N       -1.1182244120   -0.1554561763   -0.0000000000
H        1.0845465492    0.1862114442    0.0000000000
3    
Image 13/21, Energy =   -93.4304671634 (+0.072 kcal/mol)
C        0.0329372905   -0.0141965202    0.0000000000
N       -1.1071294544   -0.2286225869    0.0000000000
H        1.0741726001    0.2428247525   -0.0000000000
3    
Image 14/21, Energy =   -93.4305531654 (+0.018 kcal/mol)
C        0.0311442858    0.0030396857    0.0000000000
N       -1.0548265394   -0.4049531754    0.0000000000
H        1.0236592747    0.4019014138   -0.0000000000
3    
Image 15/21, Energy =   -93.4305762936 (+0.004 kcal/mol)
C        0.0281153236    0.0094972010    0.0000000000
N       -0.9944797988   -0.5346894707   -0.0000000000
H        0.9663554386    0.5251691201   -0.0000000000
3    
Image 16/21, Energy =   -93.4305793128 (+0.002 kcal/mol)
C        0.0258015266    0.0151482577   -0.0000000000
N       -0.9249269604   -0.6464181708   -0.0000000000
H        0.8991270999    0.6312428147   -0.0000000000
3    
Image 17/21, Energy =   -93.4305810149 (+0.001 kcal/mol)
C        0.0229491774    0.0181942195   -0.0000000000
N       -0.8530425577   -0.7376801110    0.0000000000
H        0.8300955320    0.7194626162   -0.0000000000
3    
Image 18/21, Energy =   -93.4305108462 (+0.045 kcal/mol)
C        0.0305206349    0.0093686971   -0.0000000000
N       -0.9603466045   -0.5988800947    0.0000000000
H        0.9298235971    0.5894798234    0.0000000000
3    
Image 19/21, Energy =   -93.4305788850 (+0.002 kcal/mol)
C        0.0236069860    0.0160795130   -0.0000000000
N       -0.8750848204   -0.7121168638    0.0000000000
H        0.8514842882    0.6960084270    0.0000000000
3    
Image 20/21, Energy =   -93.4305823703 (+0.000 kcal/mol)
C        0.0194260556    0.0213642891    0.0000000000
N       -0.7589320377   -0.8347584640    0.0000000000
H        0.7395059821    0.8133941749    0.0000000000
