6    
Climbing Image - Chain 52 Image 8 Energy  -168.9962095846 (+35.307 kcal/mol) RMSGrad 0.024 eV/Ang
C       -0.2521018949   -1.1071225914   -1.0124981785
C       -0.6147168895    0.0007658408   -0.5348183670
H       -1.3285271524    0.7771608146   -0.5801567446
H        0.5733087499   -1.7452329057   -0.7799527776
C        0.4535631422    0.9029205674    1.0129934483
N        1.1684740150    1.1715082933    1.8944325850
