3    
Image 0/21, Energy =   -93.4051520129 (+14.706 kcal/mol)
C       -0.7519862184   -0.8272338399    0.0000000000
N        0.0394753354    0.0434721365    0.0000000000
H        0.7125108830    0.7837617034    0.0000000000
3    
Image 1/21, Energy =   -93.4035449596 (+15.714 kcal/mol)
C       -0.6547648993   -0.8894024179    0.0000000000
N       -0.0614315614    0.1283182487    0.0000000000
H        0.7161739717    0.7611180342   -0.0000000000
3    
Image 2/21, Energy =   -93.4007370923 (+17.476 kcal/mol)
C       -0.5219418016   -0.9471719747   -0.0000000000
N       -0.1383904881    0.1697462011    0.0000000000
H        0.6602860112    0.7774755616   -0.0000000000
3    
Image 3/21, Energy =   -93.3938703284 (+21.785 kcal/mol)
C       -0.3677826583   -0.9622371411   -0.0000000000
N       -0.2460440015    0.2196416411    0.0000000000
H        0.6137697091    0.7426375440   -0.0000000000
3    
Image 4/21, Energy =   -93.3784513568 (+31.461 kcal/mol)
C       -0.2221706370   -0.8933435210   -0.0000000000
N       -0.3838045995    0.2969771022    0.0000000000
H        0.6059331259    0.5964040043   -0.0000000000
3    
Image 5/21, Energy =   -93.3625531029 (+41.437 kcal/mol)
C       -0.1061415066   -0.7801009240    0.0000000000
N       -0.5074426255    0.3529934257    0.0000000000
H        0.6135574790    0.4271574675   -0.0000000000
3    
Image 6/21, Energy =   -93.3555114869 (+45.856 kcal/mol)
C       -0.0605514300   -0.7211770451    0.0000000000
N       -0.5787253713    0.3580903622    0.0000000000
H        0.6392292159    0.3631354860   -0.0000000000
3    
Image 7/21, Energy =   -93.3507313691 (+48.855 kcal/mol)
C       -0.0307474876   -0.6600771412    0.0000000000
N       -0.6615142227    0.3502388171    0.0000000000
H        0.6922080181    0.3098906604   -0.0000000000
3    
Image 8/21, Energy =   -93.3742761453 (+34.081 kcal/mol)
C        0.0095037389   -0.4728240671    0.0000000000
N       -0.8830602223    0.2825439070    0.0000000000
H        0.8735334362    0.1903371029   -0.0000000000
3    
Image 9/21, Energy =   -93.4065292413 (+13.842 kcal/mol)
C        0.0194181776   -0.3013882571    0.0000000000
N       -1.0227962282    0.2090276990    0.0000000000
H        1.0033595790    0.0924515959   -0.0000000000
3    
Image 10/21, Energy =   -93.4256205575 (+1.862 kcal/mol)
C        0.0219771586   -0.1134855912   -0.0000000000
N       -1.1047899077    0.1451989612    0.0000000000
H        1.0828017011   -0.0316436105   -0.0000000000
3    
Image 11/21, Energy =   -93.4285047304 (+0.052 kcal/mol)
C        0.0277929310    0.0203349584    0.0000000000
N       -1.1243109479   -0.0844544514    0.0000000000
H        1.0965026717    0.0641257142   -0.0000000000
3    
Image 12/21, Energy =   -93.4284339591 (+0.096 kcal/mol)
C        0.0227634486    0.0312124039   -0.0000000000
N       -1.0980673044   -0.2561456087    0.0000000000
H        1.0752749077    0.2249248561    0.0000000000
3    
Image 13/21, Energy =   -93.4285190579 (+0.043 kcal/mol)
C        0.0215902091    0.0258397205   -0.0000000000
N       -1.0579796312   -0.3913410156   -0.0000000000
H        1.0363515378    0.3654781342   -0.0000000000
3    
Image 14/21, Energy =   -93.4285690511 (+0.012 kcal/mol)
C        0.0212225780    0.0213079748    0.0000000000
N       -0.9868970828   -0.5463217651    0.0000000000
H        0.9656570464    0.5249798465    0.0000000000
3    
Image 15/21, Energy =   -93.4285832097 (+0.003 kcal/mol)
C        0.0209310414    0.0201318035   -0.0000000000
N       -0.9083697111   -0.6692567871    0.0000000000
H        0.8874347929    0.6490859185   -0.0000000000
3    
Image 16/21, Energy =   -93.4285863461 (+0.001 kcal/mol)
C        0.0216315385    0.0193263916   -0.0000000000
N       -0.8319006613   -0.7623096123   -0.0000000000
H        0.8102582359    0.7429555314   -0.0000000000
3    
Image 17/21, Energy =   -93.4285873953 (+0.000 kcal/mol)
C        0.0224861176    0.0177546168    0.0000000000
N       -0.9084407957   -0.6701002531    0.0000000000
H        0.8859651376    0.6523076949    0.0000000000
3    
Image 18/21, Energy =   -93.4285868205 (+0.000 kcal/mol)
C        0.0240066958    0.0158998272   -0.0000000000
N       -0.9721647971   -0.5732657673    0.0000000000
H        0.9481446251    0.5573352202    0.0000000000
3    
Image 19/21, Energy =   -93.4285819789 (+0.003 kcal/mol)
C        0.0190947292    0.0219578459    0.0000000000
N       -0.8710164279   -0.7184009040    0.0000000000
H        0.8519201315    0.6964042663    0.0000000000
3    
Image 20/21, Energy =   -93.4285861953 (+0.001 kcal/mol)
C        0.0194260556    0.0213642891    0.0000000000
N       -0.7589320377   -0.8347584640    0.0000000000
H        0.7395059821    0.8133941749    0.0000000000
