3    
Image 0/21, Energy =   -93.4051520129 (+14.705 kcal/mol)
C       -0.7519862184   -0.8272338399    0.0000000000
N        0.0394753354    0.0434721365    0.0000000000
H        0.7125108830    0.7837617034    0.0000000000
3    
Image 1/21, Energy =   -93.4021674420 (+16.578 kcal/mol)
C       -0.6738551807   -0.8601742834   -0.0000000000
N       -0.0867424157    0.1628652919    0.0000000000
H        0.7606013978    0.6973200707   -0.0000000000
3    
Image 2/21, Energy =   -93.3947993093 (+21.202 kcal/mol)
C       -0.5777548438   -0.8617250316    0.0000000000
N       -0.1829445450    0.2598394015   -0.0000000000
H        0.7606840898    0.6018957196    0.0000000000
3    
Image 3/21, Energy =   -93.3852699366 (+27.181 kcal/mol)
C       -0.4569322916   -0.8535199950    0.0000000000
N       -0.2732231628    0.3214054662   -0.0000000000
H        0.7301329386    0.5321250298    0.0000000000
3    
Image 4/21, Energy =   -93.3763659933 (+32.769 kcal/mol)
C       -0.2926456149   -0.8521862843    0.0000000000
N       -0.3646391606    0.3386679954    0.0000000000
H        0.6572861124    0.5135308352   -0.0000000000
3    
Image 5/21, Energy =   -93.3605405038 (+42.699 kcal/mol)
C       -0.0847898059   -0.7663156908    0.0000000000
N       -0.5009515200    0.3615465269    0.0000000000
H        0.5857386754    0.4047770630   -0.0000000000
3    
Image 6/21, Energy =   -93.3538727170 (+46.883 kcal/mol)
C       -0.0476626170   -0.7027157845    0.0000000000
N       -0.5842153796    0.3671783909    0.0000000000
H        0.6318696879    0.3355467428   -0.0000000000
3    
Image 7/21, Energy =   -93.3533453877 (+47.214 kcal/mol)
C        0.0009162582   -0.5842708079    0.0000000000
N       -0.7495358070    0.3258121280    0.0000000000
H        0.7486087395    0.2584905594   -0.0000000000
3    
Image 8/21, Energy =   -93.3745711759 (+33.895 kcal/mol)
C        0.0050485614   -0.4647865277   -0.0000000000
N       -0.8780424226    0.2911613426    0.0000000000
H        0.8730127704    0.1736493830    0.0000000000
3    
Image 9/21, Energy =   -93.4038893136 (+15.498 kcal/mol)
C        0.0134779379   -0.3124264725   -0.0000000000
N       -1.0092800713    0.2057856117    0.0000000000
H        0.9958322046    0.1066671076   -0.0000000000
3    
Image 10/21, Energy =   -93.4163642429 (+7.669 kcal/mol)
C        0.0498993597   -0.2218875829    0.0000000000
N       -1.0834664528    0.0617298563    0.0000000000
H        1.0335740442    0.1601900122   -0.0000000000
3    
Image 11/21, Energy =   -93.4235536246 (+3.158 kcal/mol)
C        0.0369397551   -0.1257831751    0.0000000000
N       -1.1019702815   -0.1019607032   -0.0000000000
H        1.0650124667    0.2277830456   -0.0000000000
3    
Image 12/21, Energy =   -93.4262888816 (+1.442 kcal/mol)
C        0.0477087530   -0.0867507624   -0.0000000000
N       -1.0935932529   -0.2320724253   -0.0000000000
H        1.0458603572    0.3188445434   -0.0000000000
3    
Image 13/21, Energy =   -93.4268411279 (+1.095 kcal/mol)
C        0.0364279443   -0.0498714187   -0.0000000000
N       -1.0607832428   -0.3643007509   -0.0000000000
H        1.0243243005    0.4141761404   -0.0000000000
3    
Image 14/21, Energy =   -93.4279932385 (+0.372 kcal/mol)
C        0.0320481120   -0.0168158556    0.0000000000
N       -0.9952972950   -0.5340176310    0.0000000000
H        0.9632403461    0.5508225829    0.0000000000
3    
Image 15/21, Energy =   -93.4283158949 (+0.170 kcal/mol)
C        0.0258003037    0.0018591959   -0.0000000000
N       -0.9140585962   -0.6645110570    0.0000000000
H        0.8882656430    0.6626309145   -0.0000000000
3    
Image 16/21, Energy =   -93.4284658224 (+0.076 kcal/mol)
C        0.0179192141    0.0190104419   -0.0000000000
N       -0.8317930862   -0.7724025566   -0.0000000000
H        0.8138779754    0.7533777370   -0.0000000000
3    
Image 17/21, Energy =   -93.4283645445 (+0.139 kcal/mol)
C        0.0384070044   -0.0066677335    0.0000000000
N       -0.9135741643   -0.6582068828    0.0000000000
H        0.8751782783    0.6648516453   -0.0000000000
3    
Image 18/21, Energy =   -93.4279945317 (+0.371 kcal/mol)
C        0.0480196412   -0.0270007284    0.0000000000
N       -0.9785794977   -0.5510195260    0.0000000000
H        0.9305411879    0.5780104604    0.0000000000
3    
Image 19/21, Energy =   -93.4281648191 (+0.264 kcal/mol)
C        0.0388768608    0.0091906734    0.0000000000
N       -0.8815796594   -0.7100821139   -0.0000000000
H        0.8427106350    0.7008714480    0.0000000000
3    
Image 20/21, Energy =   -93.4285861953 (+0.000 kcal/mol)
C        0.0194260556    0.0213642891    0.0000000000
N       -0.7589320377   -0.8347584640    0.0000000000
H        0.7395059821    0.8133941749    0.0000000000
