3    
Image 0/21, Energy =   -93.4051520129 (+14.705 kcal/mol)
C       -0.7519862184   -0.8272338399    0.0000000000
N        0.0394753354    0.0434721365    0.0000000000
H        0.7125108830    0.7837617034    0.0000000000
3    
Image 1/21, Energy =   -93.4021162978 (+16.610 kcal/mol)
C       -0.6804035881   -0.8665882941    0.0000000000
N       -0.0892210593    0.1568054127    0.0000000000
H        0.7696247530    0.7097831409    0.0000000000
3    
Image 2/21, Energy =   -93.3960565849 (+20.413 kcal/mol)
C       -0.5988085010   -0.8567496171   -0.0000000000
N       -0.1671248337    0.2478408637    0.0000000000
H        0.7659331563    0.6089090118   -0.0000000000
3    
Image 3/21, Energy =   -93.3864387079 (+26.448 kcal/mol)
C       -0.5109856842   -0.8322129140    0.0000000000
N       -0.2378995708    0.3288622024   -0.0000000000
H        0.7488849888    0.5033508061   -0.0000000000
3    
Image 4/21, Energy =   -93.3659037099 (+39.334 kcal/mol)
C       -0.3280296857   -0.7648367394    0.0000000000
N       -0.3998096409    0.4305485515   -0.0000000000
H        0.7278392765    0.3342884061   -0.0000000000
3    
Image 5/21, Energy =   -93.3427851717 (+53.841 kcal/mol)
C       -0.2736594935   -0.7705525592   -0.0000000000
N       -0.5339386858    0.3757284540   -0.0000000000
H        0.8075978404    0.3948246769   -0.0000000000
3    
Image 6/21, Energy =   -93.3140894373 (+71.848 kcal/mol)
C       -0.2289865104   -0.7917547615    0.0000000000
N       -0.6670945008    0.3120062788    0.0000000000
H        0.8960801527    0.4797494659    0.0000000000
3    
Image 7/21, Energy =   -93.3052071785 (+77.422 kcal/mol)
C       -0.1729539980   -0.7850614588   -0.0000000000
N       -0.7506891872    0.2844027781    0.0000000000
H        0.9236425199    0.5006589390    0.0000000000
3    
Image 8/21, Energy =   -93.3276799581 (+63.320 kcal/mol)
C       -0.1298718681   -0.6896314514    0.0000000000
N       -0.7385605152    0.3084874457   -0.0000000000
H        0.8684323164    0.3811450572   -0.0000000000
3    
Image 9/21, Energy =   -93.3519503565 (+48.090 kcal/mol)
C       -0.0506109093   -0.6012458954    0.0000000000
N       -0.7455350100    0.3425526430   -0.0000000000
H        0.7961462195    0.2586941545   -0.0000000000
3    
Image 10/21, Energy =   -93.3647948194 (+40.030 kcal/mol)
C        0.0470286582   -0.4981421893    0.0000000000
N       -0.8507314369    0.2427404576    0.0000000000
H        0.8037027870    0.2554021173    0.0000000000
3    
Image 11/21, Energy =   -93.3806148973 (+30.102 kcal/mol)
C        0.1159895764   -0.3758155813    0.0000000000
N       -0.9582590310    0.0759343885   -0.0000000000
H        0.8422693823    0.2998822814   -0.0000000000
3    
Image 12/21, Energy =   -93.4019255201 (+16.730 kcal/mol)
C        0.1379658386   -0.2866634793   -0.0000000000
N       -1.0224545963   -0.1334407586    0.0000000000
H        0.8844881553    0.4201048208   -0.0000000000
3    
Image 13/21, Energy =   -93.4135005089 (+9.466 kcal/mol)
C        0.1349274072   -0.2160370279   -0.0000000000
N       -1.0298546383   -0.3136790282   -0.0000000000
H        0.8949270198    0.5297164521   -0.0000000000
3    
Image 14/21, Energy =   -93.4175277530 (+6.939 kcal/mol)
C        0.1170437351   -0.1486909313    0.0000000000
N       -1.0246454601   -0.4953824698   -0.0000000000
H        0.9076011782    0.6440731198   -0.0000000000
3    
Image 15/21, Energy =   -93.4220073911 (+4.128 kcal/mol)
C        0.0869782882   -0.0903516519    0.0000000000
N       -0.9597016404   -0.6355280380    0.0000000000
H        0.8727233272    0.7258795657   -0.0000000000
3    
Image 16/21, Energy =   -93.4188874579 (+6.086 kcal/mol)
C        0.0488188864   -0.0322286769    0.0000000000
N       -0.8902940353   -0.7843395232   -0.0000000000
H        0.8414750597    0.8165681164   -0.0000000000
3    
Image 17/21, Energy =   -93.4251608001 (+2.149 kcal/mol)
C        0.0963673722   -0.0633132745   -0.0000000000
N       -0.9037793307   -0.6401833522    0.0000000000
H        0.8074120832    0.7034961331   -0.0000000000
3    
Image 18/21, Energy =   -93.3917202342 (+23.134 kcal/mol)
C        0.1775277344   -0.0893677847    0.0000000000
N       -0.9506961851   -0.5179747241    0.0000000000
H        0.7731672515    0.6073412994    0.0000000000
3    
Image 19/21, Energy =   -93.4257646771 (+1.771 kcal/mol)
C        0.0865060967   -0.0434462213   -0.0000000000
N       -0.8777820618   -0.6759130086    0.0000000000
H        0.7912761189    0.7193586738   -0.0000000000
3    
Image 20/21, Energy =   -93.4285861953 (+0.000 kcal/mol)
C        0.0194260556    0.0213642891    0.0000000000
N       -0.7589320377   -0.8347584640    0.0000000000
H        0.7395059821    0.8133941749    0.0000000000
