3    
Image 0/21, Energy =   -93.4051520129 (+14.706 kcal/mol)
C       -0.7519862184   -0.8272338399    0.0000000000
N        0.0394753354    0.0434721365    0.0000000000
H        0.7125108830    0.7837617034    0.0000000000
3    
Image 1/21, Energy =   -93.4042834733 (+15.251 kcal/mol)
C       -0.6586870066   -0.8954781517   -0.0000000000
N       -0.0380487844    0.1053293578   -0.0000000000
H        0.6967201809    0.7901874709   -0.0000000000
3    
Image 2/21, Energy =   -93.4017980032 (+16.811 kcal/mol)
C       -0.5115975298   -0.9608040934   -0.0000000000
N       -0.1208107401    0.1508019562    0.0000000000
H        0.6323560940    0.8100661766   -0.0000000000
3    
Image 3/21, Energy =   -93.3939815807 (+21.715 kcal/mol)
C       -0.3541572325   -0.9676937025   -0.0000000000
N       -0.2472583903    0.2150850643    0.0000000000
H        0.6013425504    0.7526542551   -0.0000000000
3    
Image 4/21, Energy =   -93.3784240447 (+31.478 kcal/mol)
C       -0.2229322151   -0.8919760420   -0.0000000000
N       -0.3836974617    0.2964011914    0.0000000000
H        0.6065778185    0.5956214436   -0.0000000000
3    
Image 5/21, Energy =   -93.3626086372 (+41.402 kcal/mol)
C       -0.1043942941   -0.7807376104    0.0000000000
N       -0.5078465960    0.3514179640    0.0000000000
H        0.6122007177    0.4293760069   -0.0000000000
3    
Image 6/21, Energy =   -93.3557457958 (+45.709 kcal/mol)
C       -0.0644961887   -0.7249436433    0.0000000000
N       -0.5771002540    0.3577253024    0.0000000000
H        0.6415368271    0.3672716549   -0.0000000000
3    
Image 7/21, Energy =   -93.3506551934 (+48.903 kcal/mol)
C       -0.0307905490   -0.6585937195    0.0000000000
N       -0.6664880967    0.3495464811    0.0000000000
H        0.6972252523    0.3091053992   -0.0000000000
3    
Image 8/21, Energy =   -93.3737681754 (+34.400 kcal/mol)
C        0.0079092391   -0.4758484669    0.0000000000
N       -0.8800899022    0.2868208446    0.0000000000
H        0.8721542816    0.1890870919   -0.0000000000
3    
Image 9/21, Energy =   -93.4063519860 (+13.953 kcal/mol)
C        0.0206565337   -0.3029578647    0.0000000000
N       -1.0232745545    0.2082525109    0.0000000000
H        1.0025950969    0.0947980043   -0.0000000000
3    
Image 10/21, Energy =   -93.4255772242 (+1.889 kcal/mol)
C        0.0232790715   -0.1139614117    0.0000000000
N       -1.1058460077    0.1349318093    0.0000000000
H        1.0825513808   -0.0209019865   -0.0000000000
3    
Image 11/21, Energy =   -93.4285515867 (+0.022 kcal/mol)
C        0.0284471192    0.0125017583    0.0000000000
N       -1.1237955771   -0.0838623818    0.0000000000
H        1.0953284592    0.0713695387   -0.0000000000
3    
Image 12/21, Energy =   -93.4285640497 (+0.015 kcal/mol)
C        0.0261575205    0.0156181313   -0.0000000000
N       -1.1006849536   -0.2466961646    0.0000000000
H        1.0744936345    0.2310750620   -0.0000000000
3    
Image 13/21, Energy =   -93.4285757978 (+0.007 kcal/mol)
C        0.0251495450    0.0161751575   -0.0000000000
N       -1.0610100577   -0.3848250162   -0.0000000000
H        1.0358177491    0.3686300135   -0.0000000000
3    
Image 14/21, Energy =   -93.4285832934 (+0.003 kcal/mol)
C        0.0233384642    0.0163814242    0.0000000000
N       -0.9889636690   -0.5430147903    0.0000000000
H        0.9656023759    0.5265996819    0.0000000000
3    
Image 15/21, Energy =   -93.4285859175 (+0.001 kcal/mol)
C        0.0220481603    0.0178936462   -0.0000000000
N       -0.9096042486   -0.6677850090    0.0000000000
H        0.8875476429    0.6498507562   -0.0000000000
3    
Image 16/21, Energy =   -93.4285871820 (+0.000 kcal/mol)
C        0.0213899504    0.0194621033   -0.0000000000
N       -0.8332057440   -0.7615718714   -0.0000000000
H        0.8118018194    0.7420787624   -0.0000000000
3    
Image 17/21, Energy =   -93.4285873953 (+0.000 kcal/mol)
C        0.0224861176    0.0177546168    0.0000000000
N       -0.9084407957   -0.6701002531    0.0000000000
H        0.8859651376    0.6523076949    0.0000000000
3    
Image 18/21, Energy =   -93.4285868205 (+0.000 kcal/mol)
C        0.0240066958    0.0158998272   -0.0000000000
N       -0.9721647971   -0.5732657673    0.0000000000
H        0.9481446251    0.5573352202    0.0000000000
3    
Image 19/21, Energy =   -93.4285856335 (+0.001 kcal/mol)
C        0.0213336865    0.0197228016    0.0000000000
N       -0.8723676873   -0.7169987202    0.0000000000
H        0.8510278401    0.6972357947    0.0000000000
3    
Image 20/21, Energy =   -93.4285861953 (+0.001 kcal/mol)
C        0.0194260556    0.0213642891    0.0000000000
N       -0.7589320377   -0.8347584640    0.0000000000
H        0.7395059821    0.8133941749    0.0000000000
