3    
Image 0/21, Energy =   -93.4051520129 (+14.705 kcal/mol)
C       -0.7519862184   -0.8272338399    0.0000000000
N        0.0394753354    0.0434721365    0.0000000000
H        0.7125108830    0.7837617034    0.0000000000
3    
Image 1/21, Energy =   -93.4024654726 (+16.391 kcal/mol)
C       -0.6787886442   -0.8618141984   -0.0000000000
N       -0.0821592052    0.1565841993    0.0000000000
H        0.7609485869    0.7052312526   -0.0000000000
3    
Image 2/21, Energy =   -93.3960656570 (+20.407 kcal/mol)
C       -0.5991874947   -0.8572447858   -0.0000000000
N       -0.1686950569    0.2480016677    0.0000000000
H        0.7678815149    0.6092445657    0.0000000000
3    
Image 3/21, Energy =   -93.3867109445 (+26.277 kcal/mol)
C       -0.5116040092   -0.8352673971    0.0000000000
N       -0.2448901686    0.3280763852   -0.0000000000
H        0.7564926292    0.5071915396    0.0000000000
3    
Image 4/21, Energy =   -93.3768733413 (+32.450 kcal/mol)
C       -0.4194208215   -0.8066006957    0.0000000000
N       -0.3192703352    0.3762100957   -0.0000000000
H        0.7386902953    0.4303914392   -0.0000000000
3    
Image 5/21, Energy =   -93.3674738837 (+38.349 kcal/mol)
C       -0.3272376339   -0.7779339943    0.0000000000
N       -0.3936505017    0.4243438063    0.0000000000
H        0.7208879614    0.3535913388   -0.0000000000
3    
Image 6/21, Energy =   -93.3478449277 (+50.666 kcal/mol)
C       -0.2502545370   -0.7924845945   -0.0000000000
N       -0.5324712478    0.3798469709    0.0000000000
H        0.7827255161    0.4126392255   -0.0000000000
3    
Image 7/21, Energy =   -93.3230295630 (+66.238 kcal/mol)
C       -0.1898535853   -0.7869848842    0.0000000000
N       -0.6645013873    0.3196914413    0.0000000000
H        0.8543542677    0.4672952617    0.0000000000
3    
Image 8/21, Energy =   -93.3312577763 (+61.075 kcal/mol)
C       -0.1106389745   -0.7062162389    0.0000000000
N       -0.7350727342    0.3157177964   -0.0000000000
H        0.8457102178    0.3905008545   -0.0000000000
3    
Image 9/21, Energy =   -93.3526010182 (+47.681 kcal/mol)
C       -0.0424457936   -0.6043929204    0.0000000000
N       -0.7592638189    0.3424736886   -0.0000000000
H        0.8017097671    0.2619237845   -0.0000000000
3    
Image 10/21, Energy =   -93.3682195122 (+37.881 kcal/mol)
C        0.0341329052   -0.5022435414    0.0000000000
N       -0.8682319448    0.2495901847    0.0000000000
H        0.8340999543    0.2526568104    0.0000000000
3    
Image 11/21, Energy =   -93.3889895005 (+24.847 kcal/mol)
C        0.0871436877   -0.3910846949    0.0000000000
N       -0.9787865433    0.0842499489   -0.0000000000
H        0.8916456370    0.3068396771   -0.0000000000
3    
Image 12/21, Energy =   -93.4058326022 (+14.278 kcal/mol)
C        0.1187637720   -0.2813457883   -0.0000000000
N       -1.0330726049   -0.1304806663    0.0000000000
H        0.9143061457    0.4118309129   -0.0000000000
3    
Image 13/21, Energy =   -93.4157511430 (+8.054 kcal/mol)
C        0.1224678611   -0.1997181328   -0.0000000000
N       -1.0316942813   -0.3156619253    0.0000000000
H        0.9092239645    0.5153817963   -0.0000000000
3    
Image 14/21, Energy =   -93.4225921947 (+3.761 kcal/mol)
C        0.1000291506   -0.1253050802    0.0000000000
N       -0.9992886695   -0.4962222016   -0.0000000000
H        0.8992556074    0.6215270622    0.0000000000
3    
Image 15/21, Energy =   -93.4255928493 (+1.878 kcal/mol)
C        0.0808407412   -0.0718347815    0.0000000000
N       -0.9405652711   -0.6293005987   -0.0000000000
H        0.8597245247    0.7011338307    0.0000000000
3    
Image 16/21, Energy =   -93.4261103785 (+1.554 kcal/mol)
C        0.0392895236   -0.0255898118    0.0000000000
N       -0.8575394990   -0.7634155230    0.0000000000
H        0.8182502523    0.7890040866   -0.0000000000
3    
Image 17/21, Energy =   -93.4258452747 (+1.720 kcal/mol)
C        0.0885916319   -0.0625383381   -0.0000000000
N       -0.9089902664   -0.6403229058    0.0000000000
H        0.8203995920    0.7028590954   -0.0000000000
3    
Image 18/21, Energy =   -93.4206673486 (+4.969 kcal/mol)
C        0.1237837453   -0.1260852150    0.0000000000
N       -0.9528933301   -0.5268050693    0.0000000000
H        0.8291056238    0.6528884516    0.0000000000
3    
Image 19/21, Energy =   -93.4266737259 (+1.200 kcal/mol)
C        0.0771471842   -0.0461000005   -0.0000000000
N       -0.8842715316   -0.6780503884    0.0000000000
H        0.8071256034    0.7241478808   -0.0000000000
3    
Image 20/21, Energy =   -93.4285861953 (+0.000 kcal/mol)
C        0.0194260556    0.0213642891    0.0000000000
N       -0.7589320377   -0.8347584640    0.0000000000
H        0.7395059821    0.8133941749    0.0000000000
