3    
Image 0/21, Energy =   -93.4051520129 (+14.705 kcal/mol)
C       -0.7519862184   -0.8272338399    0.0000000000
N        0.0394753354    0.0434721365    0.0000000000
H        0.7125108830    0.7837617034    0.0000000000
3    
Image 1/21, Energy =   -93.4020587398 (+16.646 kcal/mol)
C       -0.6645380279   -0.8664164816   -0.0000000000
N       -0.0907576980    0.1640152849    0.0000000000
H        0.7552897784    0.7024205014   -0.0000000000
3    
Image 2/21, Energy =   -93.3958476158 (+20.544 kcal/mol)
C       -0.5525572633   -0.8875322341    0.0000000000
N       -0.1845117095    0.2418087379    0.0000000000
H        0.7370339923    0.6457410050    0.0000000000
3    
Image 3/21, Energy =   -93.3897423476 (+24.375 kcal/mol)
C       -0.4396786297   -0.8991307011    0.0000000000
N       -0.2576810167    0.2770702472    0.0000000000
H        0.6973362377    0.6220774547    0.0000000000
3    
Image 4/21, Energy =   -93.3775116169 (+32.050 kcal/mol)
C       -0.2628528851   -0.8738799037    0.0000000000
N       -0.3750557599    0.3199862093    0.0000000000
H        0.6378949628    0.5539117268   -0.0000000000
3    
Image 5/21, Energy =   -93.3623462237 (+41.566 kcal/mol)
C       -0.1076387613   -0.7777255872   -0.0000000000
N       -0.5076593420    0.3552483863    0.0000000000
H        0.6152957745    0.4224965942   -0.0000000000
3    
Image 6/21, Energy =   -93.3547207433 (+46.351 kcal/mol)
C       -0.0618776158   -0.7171252393    0.0000000000
N       -0.5893018194    0.3569290877    0.0000000000
H        0.6511627844    0.3602197607   -0.0000000000
3    
Image 7/21, Energy =   -93.3527210903 (+47.606 kcal/mol)
C       -0.0132460045   -0.6013430549    0.0000000000
N       -0.7401837901    0.3315822079    0.0000000000
H        0.7534045262    0.2698006899   -0.0000000000
3    
Image 8/21, Energy =   -93.3748871877 (+33.697 kcal/mol)
C        0.0092997063   -0.4692799986    0.0000000000
N       -0.8853673442    0.2815128825    0.0000000000
H        0.8760699387    0.1878059076   -0.0000000000
3    
Image 9/21, Energy =   -93.4046888944 (+14.996 kcal/mol)
C        0.0145471268   -0.3123411438   -0.0000000000
N       -1.0123933602    0.2174680450    0.0000000000
H        0.9978593912    0.0949271655   -0.0000000000
3    
Image 10/21, Energy =   -93.4226166309 (+3.746 kcal/mol)
C        0.0300474503   -0.1587506666   -0.0000000000
N       -1.0991770119    0.1005043531    0.0000000000
H        1.0691285409    0.0582922980   -0.0000000000
3    
Image 11/21, Energy =   -93.4277089981 (+0.550 kcal/mol)
C        0.0328248911   -0.0568405112    0.0000000000
N       -1.1206613948   -0.0936933693   -0.0000000000
H        1.0878231414    0.1505611217   -0.0000000000
3    
Image 12/21, Energy =   -93.4283861308 (+0.126 kcal/mol)
C        0.0339167033   -0.0219077553   -0.0000000000
N       -1.1001569523   -0.2492538261    0.0000000000
H        1.0662172852    0.2711686466   -0.0000000000
3    
Image 13/21, Energy =   -93.4285062927 (+0.050 kcal/mol)
C        0.0306874453   -0.0059059448   -0.0000000000
N       -1.0613353021   -0.3827262227   -0.0000000000
H        1.0306165734    0.3886229097   -0.0000000000
3    
Image 14/21, Energy =   -93.4285573160 (+0.018 kcal/mol)
C        0.0272677485    0.0061940644    0.0000000000
N       -0.9902291351   -0.5420015030    0.0000000000
H        0.9629525968    0.5357860611    0.0000000000
3    
Image 15/21, Energy =   -93.4285746125 (+0.007 kcal/mol)
C        0.0240110485    0.0133396137   -0.0000000000
N       -0.9100437652   -0.6679687722    0.0000000000
H        0.8860384310    0.6546008953   -0.0000000000
3    
Image 16/21, Energy =   -93.4285839180 (+0.001 kcal/mol)
C        0.0206190589    0.0194576742   -0.0000000000
N       -0.8297848809   -0.7670503941    0.0000000000
H        0.8091653170    0.7475746638   -0.0000000000
3    
Image 17/21, Energy =   -93.4285735039 (+0.008 kcal/mol)
C        0.0272217933    0.0107792451    0.0000000000
N       -0.9103833484   -0.6668205207    0.0000000000
H        0.8831730766    0.6560084843    0.0000000000
3    
Image 18/21, Energy =   -93.4285469894 (+0.025 kcal/mol)
C        0.0309624598    0.0032633741   -0.0000000000
N       -0.9752603476   -0.5670037048    0.0000000000
H        0.9442836122    0.5637167264    0.0000000000
3    
Image 19/21, Energy =   -93.4285666430 (+0.012 kcal/mol)
C        0.0261691503    0.0156241084   -0.0000000000
N       -0.8743446846   -0.7153480588   -0.0000000000
H        0.8481823394    0.6996965722    0.0000000000
3    
Image 20/21, Energy =   -93.4285861953 (+0.000 kcal/mol)
C        0.0194260556    0.0213642891    0.0000000000
N       -0.7589320377   -0.8347584640    0.0000000000
H        0.7395059821    0.8133941749    0.0000000000
