3    
Image 0/21, Energy =   -93.4051520129 (+14.706 kcal/mol)
C       -0.7519862184   -0.8272338399    0.0000000000
N        0.0394753354    0.0434721365    0.0000000000
H        0.7125108830    0.7837617034    0.0000000000
3    
Image 1/21, Energy =   -93.4051472882 (+14.709 kcal/mol)
C       -0.6550167726   -0.9059018152   -0.0000000000
N        0.0254223837    0.0529486860   -0.0000000000
H        0.6295990950    0.8529975759   -0.0000000000
3    
Image 2/21, Energy =   -93.4033794229 (+15.818 kcal/mol)
C       -0.4657677598   -0.9986694752   -0.0000000000
N       -0.0903354686    0.1166594211    0.0000000000
H        0.5560366374    0.8820993679   -0.0000000000
3    
Image 3/21, Energy =   -93.3940471133 (+21.674 kcal/mol)
C       -0.3491837996   -0.9705510562   -0.0000000000
N       -0.2486905691    0.2132727454    0.0000000000
H        0.5977921602    0.7573260882   -0.0000000000
3    
Image 4/21, Energy =   -93.3784360188 (+31.471 kcal/mol)
C       -0.2242589958   -0.8918971009   -0.0000000000
N       -0.3831110771    0.2971424040    0.0000000000
H        0.6073116210    0.5948067827   -0.0000000000
3    
Image 5/21, Energy =   -93.3630789840 (+41.107 kcal/mol)
C       -0.1096885600   -0.7843886052    0.0000000000
N       -0.5026365798    0.3520801019    0.0000000000
H        0.6122502797    0.4323823562    0.0000000000
3    
Image 6/21, Energy =   -93.3558328641 (+45.654 kcal/mol)
C       -0.0640403324   -0.7244972499    0.0000000000
N       -0.5748105468    0.3593991760   -0.0000000000
H        0.6387834093    0.3651704610    0.0000000000
3    
Image 7/21, Energy =   -93.3505450071 (+48.972 kcal/mol)
C       -0.0256470082   -0.6477184393    0.0000000000
N       -0.6795216459    0.3478247087   -0.0000000000
H        0.7051185044    0.2999670444   -0.0000000000
3    
Image 8/21, Energy =   -93.3735788062 (+34.519 kcal/mol)
C        0.0070482643   -0.4769532017    0.0000000000
N       -0.8786035895    0.2902265596   -0.0000000000
H        0.8715270518    0.1867956557    0.0000000000
3    
Image 9/21, Energy =   -93.4061972973 (+14.050 kcal/mol)
C        0.0174516084   -0.3035088785    0.0000000000
N       -1.0200491059    0.2146255952   -0.0000000000
H        1.0025653021    0.0889858410    0.0000000000
3    
Image 10/21, Energy =   -93.4254125151 (+1.992 kcal/mol)
C        0.0240982429   -0.1172346501    0.0000000000
N       -1.1072316336    0.1232852535    0.0000000000
H        1.0831098976   -0.0059835750   -0.0000000000
3    
Image 11/21, Energy =   -93.4285851854 (+0.002 kcal/mol)
C        0.0287540751   -0.0008979785    0.0000000000
N       -1.1254406317   -0.0846891351    0.0000000000
H        1.0966495842    0.0856008357   -0.0000000000
3    
Image 12/21, Energy =   -93.4285874427 (+0.000 kcal/mol)
C        0.0278825868    0.0064106544   -0.0000000000
N       -1.1028595341   -0.2420542342    0.0000000000
H        1.0749399602    0.2356437996   -0.0000000000
3    
Image 13/21, Energy =   -93.4285729444 (+0.009 kcal/mol)
C        0.0299187782    0.0024694972   -0.0000000000
N       -1.0641202306   -0.3764039830   -0.0000000000
H        1.0341428571    0.3739160065   -0.0000000000
3    
Image 14/21, Energy =   -93.4285837632 (+0.002 kcal/mol)
C        0.0270868507    0.0101215811    0.0000000000
N       -0.9921130937   -0.5386139324    0.0000000000
H        0.9649924419    0.5284571348    0.0000000000
3    
Image 15/21, Energy =   -93.4285867697 (+0.001 kcal/mol)
C        0.0242207014    0.0153429129   -0.0000000000
N       -0.9118178113   -0.6654979076    0.0000000000
H        0.8875788957    0.6501100035   -0.0000000000
3    
Image 16/21, Energy =   -93.4285875901 (+0.000 kcal/mol)
C        0.0209913142    0.0194212793   -0.0000000000
N       -0.8357704663   -0.7588414100   -0.0000000000
H        0.8147580849    0.7393817664   -0.0000000000
3    
Image 17/21, Energy =   -93.4285873953 (+0.000 kcal/mol)
C        0.0224861176    0.0177546168    0.0000000000
N       -0.9084407957   -0.6701002531    0.0000000000
H        0.8859651376    0.6523076949    0.0000000000
3    
Image 18/21, Energy =   -93.4285868205 (+0.000 kcal/mol)
C        0.0240066958    0.0158998272   -0.0000000000
N       -0.9721647971   -0.5732657673    0.0000000000
H        0.9481446251    0.5573352202    0.0000000000
3    
Image 19/21, Energy =   -93.4285862262 (+0.001 kcal/mol)
C        0.0236923966    0.0162592029    0.0000000000
N       -0.8737111147   -0.7147610875    0.0000000000
H        0.8500032010    0.6984577124    0.0000000000
3    
Image 20/21, Energy =   -93.4285861953 (+0.001 kcal/mol)
C        0.0194260556    0.0213642891    0.0000000000
N       -0.7589320377   -0.8347584640    0.0000000000
H        0.7395059821    0.8133941749    0.0000000000
