3    
Iteration 0 Energy -93.35054500
C        1.3049824246   -0.3771273470    0.0000000000
N        0.1141290514   -0.3774679678    0.0000000000
H        0.9156634326    0.7546971074    0.0000000000
3    
Iteration 1 Energy -93.35164669
C        1.2994656042   -0.3698503308    0.0000000000
N        0.1115801346   -0.3847228189    0.0000000000
H        1.0168174339    0.7687996078    0.0000000000
3    
Iteration 1 Energy -93.35317230
C        1.2963584750   -0.3655464500    0.0000000000
N        0.1102330572   -0.3886352488    0.0000000000
H        1.0725381753    0.7718701841    0.0000000000
3    
Iteration 1 Energy -93.35540282
C        1.2930792277   -0.3612200988    0.0000000000
N        0.1088664945   -0.3927468955    0.0000000000
H        1.1305844585    0.7774538576    0.0000000000
3    
Iteration 1 Energy -93.35832754
C        1.2896447943   -0.3563860167    0.0000000000
N        0.1074728118   -0.3969645832    0.0000000000
H        1.1908627718    0.7784749361    0.0000000000
3    
Iteration 1 Energy -93.36188454
C        1.2860631508   -0.3513065888    0.0000000000
N        0.1060771376   -0.4012988311    0.0000000000
H        1.2529305711    0.7781946682    0.0000000000
3    
Iteration 1 Energy -93.36597576
C        1.2823686075   -0.3458938590    0.0000000000
N        0.1046896287   -0.4057118987    0.0000000000
H        1.3162295785    0.7750325763    0.0000000000
3    
Iteration 1 Energy -93.37047420
C        1.2785859208   -0.3401783730    0.0000000000
N        0.1033290452   -0.4101764353    0.0000000000
H        1.3802085927    0.7689782511    0.0000000000
3    
Iteration 1 Energy -93.37524059
C        1.2747459536   -0.3341755194    0.0000000000
N        0.1020115660   -0.4146637187    0.0000000000
H        1.4442773075    0.7598157617    0.0000000000
3    
Iteration 1 Energy -93.38013779
C        1.2708793189   -0.3279068106    0.0000000000
N        0.1007519574   -0.4191479348    0.0000000000
H        1.5078617382    0.7474423857    0.0000000000
3    
Iteration 1 Energy -93.38504185
C        1.2670155931   -0.3213960214    0.0000000000
N        0.0995629701   -0.4236067937    0.0000000000
H        1.5704294670    0.7318337199    0.0000000000
3    
Iteration 1 Energy -93.38984869
C        1.2631820234   -0.3146684435    0.0000000000
N        0.0984553553   -0.4280216136    0.0000000000
H        1.6315085665    0.7130334707    0.0000000000
3    
Iteration 1 Energy -93.39447641
C        1.2594025272   -0.3077502973    0.0000000000
N        0.0974378997   -0.4323775053    0.0000000000
H        1.6906929512    0.6911413569    0.0000000000
3    
Iteration 1 Energy -93.39886468
C        1.2556966885   -0.3006671574    0.0000000000
N        0.0965176011   -0.4366634149    0.0000000000
H        1.7476446616    0.6663068813    0.0000000000
3    
Iteration 1 Energy -93.40297210
C        1.2520806963   -0.2934437615    0.0000000000
N        0.0957000828   -0.4408712063    0.0000000000
H        1.8020914435    0.6387149090    0.0000000000
3    
Iteration 1 Energy -93.40677280
C        1.2485672200   -0.2861041312    0.0000000000
N        0.0949900260   -0.4449949697    0.0000000000
H        1.8538185089    0.6085726558    0.0000000000
3    
Iteration 1 Energy -93.41025270
C        1.2451657655   -0.2786717117    0.0000000000
N        0.0943913175   -0.4490304565    0.0000000000
H        1.9026616217    0.5761017736    0.0000000000
3    
Iteration 1 Energy -93.41340625
C        1.2418831146   -0.2711698169    0.0000000000
N        0.0939071238   -0.4529746000    0.0000000000
H        1.9484992952    0.5415317951    0.0000000000
3    
Iteration 1 Energy -93.41623413
C        1.2387233380   -0.2636208750    0.0000000000
N        0.0935396966   -0.4568254520    0.0000000000
H        1.9912472858    0.5050986346    0.0000000000
3    
Iteration 1 Energy -93.41874146
C        1.2356889428   -0.2560459193    0.0000000000
N        0.0932902348   -0.4605819058    0.0000000000
H        2.0308554010    0.4670404084    0.0000000000
3    
Iteration 1 Energy -93.42093639
C        1.2327816820   -0.2484651148    0.0000000000
N        0.0931590794   -0.4642432404    0.0000000000
H        2.0673020696    0.4275904984    0.0000000000
3    
Iteration 1 Energy -93.42282909
C        1.2300021745   -0.2408979605    0.0000000000
N        0.0931459044   -0.4678089697    0.0000000000
H        2.1005894024    0.3869752247    0.0000000000
3    
Iteration 1 Energy -93.42443078
C        1.2273500517   -0.2333632057    0.0000000000
N        0.0932495848   -0.4712788641    0.0000000000
H        2.1307404336    0.3454136068    0.0000000000
3    
Iteration 1 Energy -93.42575320
C        1.2248242801   -0.2258789602    0.0000000000
N        0.0934681597   -0.4746529113    0.0000000000
H        2.1577966309    0.3031165256    0.0000000000
3    
Iteration 1 Energy -93.42680815
C        1.2224231798   -0.2184623291    0.0000000000
N        0.0937987848   -0.4779313453    0.0000000000
H        2.1818153840    0.2602868713    0.0000000000
3    
Iteration 1 Energy -93.42760737
C        1.2201446639   -0.2111287905    0.0000000000
N        0.0942376925   -0.4811147204    0.0000000000
H        2.2028687995    0.2171196102    0.0000000000
3    
Iteration 1 Energy -93.42816243
C        1.2179864568   -0.2038925243    0.0000000000
N        0.0947805359   -0.4842038070    0.0000000000
H        2.2210424836    0.1737984012    0.0000000000
3    
Iteration 1 Energy -93.42848507
C        1.2159457968   -0.1967668908    0.0000000000
N        0.0954224918   -0.4871995909    0.0000000000
H        2.2364369814    0.1304925636    0.0000000000
3    
Iteration 1 Energy -93.42858759
C        1.2140215983   -0.1897628303    0.0000000000
N        0.0961566467   -0.4901039204    0.0000000000
H        2.2491525748    0.0873506839    0.0000000000
