3    
Iteration 0 Energy -93.35521309
C        0.8934657239   -0.5265201380    0.0000000000
N       -0.2322139459   -0.1375591820    0.0000000000
H        0.9127187149    0.6641823244    0.0000000000
3    
Iteration 1 Energy -93.35585272
C        0.8932655906   -0.5256496556    0.0000000000
N       -0.2321869337   -0.1377796864    0.0000000000
H        1.0201414669    0.6568736095    0.0000000000
3    
Iteration 1 Energy -93.35681419
C        0.8914995789   -0.5197208859    0.0000000000
N       -0.2326470067   -0.1399931881    0.0000000000
H        1.0475561486    0.6169834598    0.0000000000
3    
Iteration 1 Energy -93.35837546
C        0.8898436666   -0.5168141774    0.0000000000
N       -0.2351714901   -0.1430714848    0.0000000000
H        1.1023474917    0.6251252248    0.0000000000
3    
Iteration 1 Energy -93.36067812
C        0.8885953730   -0.5106903763    0.0000000000
N       -0.2376506868   -0.1462297880    0.0000000000
H        1.1516611061    0.5960585341    0.0000000000
3    
Iteration 1 Energy -93.36363039
C        0.8867722676   -0.5053143223    0.0000000000
N       -0.2403064310   -0.1497716939    0.0000000000
H        1.2102879021    0.5812369591    0.0000000000
3    
Iteration 1 Energy -93.36715668
C        0.8851502680   -0.4991390567    0.0000000000
N       -0.2430195599   -0.1533601690    0.0000000000
H        1.2673179805    0.5575339513    0.0000000000
3    
Iteration 1 Energy -93.37115456
C        0.8834802750   -0.4927426603    0.0000000000
N       -0.2457424531   -0.1570318262    0.0000000000
H        1.3250534375    0.5323493256    0.0000000000
3    
Iteration 1 Energy -93.37551073
C        0.8818587563   -0.4860270387    0.0000000000
N       -0.2484605749   -0.1607513895    0.0000000000
H        1.3821519080    0.5040243917    0.0000000000
3    
Iteration 1 Energy -93.38010278
C        0.8802971948   -0.4790318344    0.0000000000
N       -0.2511506304   -0.1645020093    0.0000000000
H        1.4381501264    0.4727978020    0.0000000000
3    
Iteration 1 Energy -93.38480946
C        0.8788176549   -0.4717828530    0.0000000000
N       -0.2537919744   -0.1682666330    0.0000000000
H        1.4924947282    0.4387418936    0.0000000000
3    
Iteration 1 Energy -93.38951919
C        0.8774378677   -0.4643099954    0.0000000000
N       -0.2563648313   -0.1720304015    0.0000000000
H        1.5446992936    0.4020099554    0.0000000000
3    
Iteration 1 Energy -93.39413573
C        0.8761720966   -0.4566453374    0.0000000000
N       -0.2588511877   -0.1757805580    0.0000000000
H        1.5943468307    0.3628032848    0.0000000000
3    
Iteration 1 Energy -93.39858123
C        0.8750303438   -0.4488212170    0.0000000000
N       -0.2612356475   -0.1795070036    0.0000000000
H        1.6410981419    0.3213633136    0.0000000000
3    
Iteration 1 Energy -93.40279680
C        0.8740193502   -0.4408688516    0.0000000000
N       -0.2635057854   -0.1832020758    0.0000000000
H        1.6846957620    0.2779591681    0.0000000000
3    
Iteration 1 Energy -93.40674095
C        0.8731432408   -0.4328182410    0.0000000000
N       -0.2656516895   -0.1868599940    0.0000000000
H        1.7249549015    0.2328705644    0.0000000000
3    
Iteration 1 Energy -93.41038679
C        0.8724034400   -0.4246976674    0.0000000000
N       -0.2676656151   -0.1904765503    0.0000000000
H        1.7617534133    0.1863784106    0.0000000000
3    
Iteration 1 Energy -93.41371874
C        0.8717991411   -0.4165341461    0.0000000000
N       -0.2695416370   -0.1940486406    0.0000000000
H        1.7950220681    0.1387579708    0.0000000000
3    
Iteration 1 Energy -93.41672985
C        0.8713272032   -0.4083531890    0.0000000000
N       -0.2712754170   -0.1975740686    0.0000000000
H        1.8247354624    0.0902765451    0.0000000000
3    
Iteration 1 Energy -93.41941958
C        0.8709828564   -0.4001780194    0.0000000000
N       -0.2728642752   -0.2010514079    0.0000000000
H        1.8509074810    0.0411926348    0.0000000000
3    
Iteration 1 Energy -93.42179216
C        0.8707608987   -0.3920300970    0.0000000000
N       -0.2743069693   -0.2044795895    0.0000000000
H        1.8735845181   -0.0082492744    0.0000000000
3    
Iteration 1 Energy -93.42385520
C        0.8706555860   -0.3839295982    0.0000000000
N       -0.2756032596   -0.2078576825    0.0000000000
H        1.8928374959   -0.0578218298    0.0000000000
3    
Iteration 1 Energy -93.42561857
C        0.8706603811   -0.3758952776    0.0000000000
N       -0.2767538155   -0.2111848693    0.0000000000
H        1.9087572069   -0.1073142245    0.0000000000
3    
Iteration 1 Energy -93.42709340
C        0.8707684235   -0.3679447064    0.0000000000
N       -0.2777604249   -0.2144603618    0.0000000000
H        1.9214517168   -0.1565316904    0.0000000000
3    
Iteration 1 Energy -93.42829152
C        0.8709725959   -0.3600942898    0.0000000000
N       -0.2786258501   -0.2176833743    0.0000000000
H        1.9310426223   -0.2052949827    0.0000000000
3    
Iteration 1 Energy -93.42922500
C        0.8712658305   -0.3523587370    0.0000000000
N       -0.2793539648   -0.2208531500    0.0000000000
H        1.9376636045   -0.2534387123    0.0000000000
3    
Iteration 1 Energy -93.42990590
C        0.8716413975   -0.3447509907    0.0000000000
N       -0.2799494177   -0.2239690017    0.0000000000
H        1.9414572244   -0.3008122739    0.0000000000
3    
Iteration 1 Energy -93.43034630
C        0.8720926638   -0.3372829491    0.0000000000
N       -0.2804175129   -0.2270302527    0.0000000000
H        1.9425765914   -0.3472826461    0.0000000000
3    
Iteration 1 Energy -93.43055861
C        0.8726140146   -0.3299652690    0.0000000000
N       -0.2807641652   -0.2300363286    0.0000000000
H        1.9411669787   -0.3927366898    0.0000000000
3    
Iteration 1 Energy -93.43055576
C        0.8731797257   -0.3228043388    0.0000000000
N       -0.2809945755   -0.2329876640    0.0000000000
H        1.9375763418   -0.4370900314    0.0000000000
