3    
Image 0/21, Energy =   -93.4051520129 (+14.705 kcal/mol)
C       -0.7519862184   -0.8272338399    0.0000000000
N        0.0394753354    0.0434721365    0.0000000000
H        0.7125108830    0.7837617034    0.0000000000
3    
Image 1/21, Energy =   -93.4022840018 (+16.505 kcal/mol)
C       -0.6803683678   -0.8658759679   -0.0000000000
N       -0.0861637106    0.1577167306    0.0000000000
H        0.7665323481    0.7081597877   -0.0000000000
3    
Image 2/21, Energy =   -93.3960663557 (+20.407 kcal/mol)
C       -0.5989225470   -0.8568125532   -0.0000000000
N       -0.1676782780    0.2477155017    0.0000000000
H        0.7666004176    0.6090976399    0.0000000000
3    
Image 3/21, Energy =   -93.3866027176 (+26.345 kcal/mol)
C       -0.5115050717   -0.8329696706    0.0000000000
N       -0.2404051569    0.3281597156   -0.0000000000
H        0.7519096189    0.5048101740    0.0000000000
3    
Image 4/21, Energy =   -93.3663378479 (+39.061 kcal/mol)
C       -0.3276316375   -0.7688003287    0.0000000000
N       -0.3983522185    0.4294421327    0.0000000000
H        0.7259837546    0.3393586905   -0.0000000000
3    
Image 5/21, Energy =   -93.3452521629 (+52.293 kcal/mol)
C       -0.2658269569   -0.7849818478   -0.0000000000
N       -0.5350177946    0.3849421525    0.0000000000
H        0.8008442905    0.4000407296   -0.0000000000
3    
Image 6/21, Energy =   -93.3168273680 (+70.130 kcal/mol)
C       -0.2150488876   -0.7990115698    0.0000000000
N       -0.6694589518    0.3226657680    0.0000000000
H        0.8845070234    0.4763473074    0.0000000000
3    
Image 7/21, Energy =   -93.3077656251 (+75.816 kcal/mol)
C       -0.1660303652   -0.7848632456   -0.0000000000
N       -0.7451318226    0.2900229843    0.0000000000
H        0.9111613250    0.4948405980    0.0000000000
3    
Image 8/21, Energy =   -93.3297683210 (+62.009 kcal/mol)
C       -0.1187282843   -0.7005613183    0.0000000000
N       -0.7431037629    0.3184121380   -0.0000000000
H        0.8618317891    0.3821509315   -0.0000000000
3    
Image 9/21, Energy =   -93.3524075125 (+47.803 kcal/mol)
C       -0.0459365501   -0.6053101942    0.0000000000
N       -0.7519114653    0.3460368591   -0.0000000000
H        0.7978483495    0.2592753656   -0.0000000000
3    
Image 10/21, Energy =   -93.3662311933 (+39.128 kcal/mol)
C        0.0460138106   -0.5021060468    0.0000000000
N       -0.8593213665    0.2467788387    0.0000000000
H        0.8133077710    0.2553284018    0.0000000000
3    
Image 11/21, Energy =   -93.3850642893 (+27.310 kcal/mol)
C        0.1015612988   -0.3809600391    0.0000000000
N       -0.9621054807    0.0748912233   -0.0000000000
H        0.8605445043    0.3060711613   -0.0000000000
3    
Image 12/21, Energy =   -93.4035242858 (+15.727 kcal/mol)
C        0.1255659841   -0.2858905802   -0.0000000000
N       -1.0198998723   -0.1338873282    0.0000000000
H        0.8943325035    0.4197794560    0.0000000000
3    
Image 13/21, Energy =   -93.4142542146 (+8.993 kcal/mol)
C        0.1275731288   -0.2121619114   -0.0000000000
N       -1.0267283933   -0.3140372157    0.0000000000
H        0.8991545038    0.5261999500   -0.0000000000
3    
Image 14/21, Energy =   -93.4201364181 (+5.302 kcal/mol)
C        0.1048109994   -0.1441467970    0.0000000000
N       -1.0104240560   -0.4947480154   -0.0000000000
H        0.9056116321    0.6388944229    0.0000000000
3    
Image 15/21, Energy =   -93.4235024839 (+3.190 kcal/mol)
C        0.0816753441   -0.0868646267    0.0000000000
N       -0.9504989261   -0.6319808008    0.0000000000
H        0.8688234210    0.7188449555   -0.0000000000
3    
Image 16/21, Energy =   -93.4224578276 (+3.846 kcal/mol)
C        0.0402007696   -0.0351204832    0.0000000000
N       -0.8757639360   -0.7742627480    0.0000000000
H        0.8355630207    0.8093829775   -0.0000000000
3    
Image 17/21, Energy =   -93.4253234370 (+2.047 kcal/mol)
C        0.0959669239   -0.0626895554   -0.0000000000
N       -0.9070152809   -0.6402110174    0.0000000000
H        0.8110486896    0.7028996349   -0.0000000000
3    
Image 18/21, Energy =   -93.4151532687 (+8.429 kcal/mol)
C        0.1435604779   -0.1145197134    0.0000000000
N       -0.9413071912   -0.5165847953    0.0000000000
H        0.7977449967    0.6311030049    0.0000000000
3    
Image 19/21, Energy =   -93.4260526318 (+1.590 kcal/mol)
C        0.0860706289   -0.0432791986   -0.0000000000
N       -0.8818337490   -0.6771734578    0.0000000000
H        0.7957635619    0.7204515697   -0.0000000000
3    
Image 20/21, Energy =   -93.4285861953 (+0.000 kcal/mol)
C        0.0194260556    0.0213642891    0.0000000000
N       -0.7589320377   -0.8347584640    0.0000000000
H        0.7395059821    0.8133941749    0.0000000000
