3    
Image 0/21, Energy =   -93.4051520129 (+14.706 kcal/mol)
C       -0.7519862184   -0.8272338399    0.0000000000
N        0.0394753354    0.0434721365    0.0000000000
H        0.7125108830    0.7837617034    0.0000000000
3    
Image 1/21, Energy =   -93.4039416971 (+15.465 kcal/mol)
C       -0.6571526284   -0.8922409332    0.0000000000
N       -0.0501033260    0.1166257481    0.0000000000
H        0.7072364418    0.7756510151   -0.0000000000
3    
Image 2/21, Energy =   -93.4012978717 (+17.124 kcal/mol)
C       -0.5173504529   -0.9539068263   -0.0000000000
N       -0.1288104767    0.1605083867    0.0000000000
H        0.6461120093    0.7934555606   -0.0000000000
3    
Image 3/21, Energy =   -93.3939306001 (+21.747 kcal/mol)
C       -0.3601571638   -0.9648731020   -0.0000000000
N       -0.2464516398    0.2168158313    0.0000000000
H        0.6065440426    0.7481010860   -0.0000000000
3    
Image 4/21, Energy =   -93.3784412248 (+31.467 kcal/mol)
C       -0.2221939061   -0.8923751516   -0.0000000000
N       -0.3839627664    0.2959893282    0.0000000000
H        0.6061100282    0.5964276860   -0.0000000000
3    
Image 5/21, Energy =   -93.3625619114 (+41.432 kcal/mol)
C       -0.1051554850   -0.7803139784    0.0000000000
N       -0.5080002369    0.3520480998    0.0000000000
H        0.6131227521    0.4283190975   -0.0000000000
3    
Image 6/21, Energy =   -93.3556440239 (+45.773 kcal/mol)
C       -0.0625032229   -0.7239197592    0.0000000000
N       -0.5782379848    0.3583685681    0.0000000000
H        0.6406875354    0.3656022693   -0.0000000000
3    
Image 7/21, Energy =   -93.3507259677 (+48.859 kcal/mol)
C       -0.0309365111   -0.6616794391    0.0000000000
N       -0.6628406647    0.3510001566    0.0000000000
H        0.6937233406    0.3107343656   -0.0000000000
3    
Image 8/21, Energy =   -93.3740332824 (+34.233 kcal/mol)
C        0.0091646559   -0.4746422820    0.0000000000
N       -0.8819764157    0.2850263428    0.0000000000
H        0.8727868444    0.1896740238   -0.0000000000
3    
Image 9/21, Energy =   -93.4065086717 (+13.855 kcal/mol)
C        0.0187404994   -0.3012970740    0.0000000000
N       -1.0223304089    0.2076862807    0.0000000000
H        1.0035690432    0.0937029380   -0.0000000000
3    
Image 10/21, Energy =   -93.4256062354 (+1.871 kcal/mol)
C        0.0239421631   -0.1134653480    0.0000000000
N       -1.1061488786    0.1407176626    0.0000000000
H        1.0821935996   -0.0271830289   -0.0000000000
3    
Image 11/21, Energy =   -93.4285190267 (+0.043 kcal/mol)
C        0.0289575108    0.0173156587    0.0000000000
N       -1.1240144258   -0.0841107739    0.0000000000
H        1.0950394246    0.0668024122   -0.0000000000
3    
Image 12/21, Energy =   -93.4285043048 (+0.052 kcal/mol)
C        0.0246828656    0.0243549318   -0.0000000000
N       -1.0992694954   -0.2515822479    0.0000000000
H        1.0745554583    0.2272213601    0.0000000000
3    
Image 13/21, Energy =   -93.4285498606 (+0.024 kcal/mol)
C        0.0230539515    0.0214836641   -0.0000000000
N       -1.0590732877   -0.3881531854   -0.0000000000
H        1.0359792099    0.3666478298   -0.0000000000
3    
Image 14/21, Energy =   -93.4285775331 (+0.006 kcal/mol)
C        0.0224103581    0.0192262464    0.0000000000
N       -0.9879221548   -0.5447708762    0.0000000000
H        0.9654918053    0.5255107494    0.0000000000
3    
Image 15/21, Energy =   -93.4285851571 (+0.001 kcal/mol)
C        0.0215785188    0.0192306610   -0.0000000000
N       -0.9089600013   -0.6686117506    0.0000000000
H        0.8873754433    0.6493412624   -0.0000000000
3    
Image 16/21, Energy =   -93.4285866460 (+0.000 kcal/mol)
C        0.0214847446    0.0193566507   -0.0000000000
N       -0.8324015727   -0.7617944262   -0.0000000000
H        0.8109044707    0.7424085023   -0.0000000000
3    
Image 17/21, Energy =   -93.4285873953 (+0.000 kcal/mol)
C        0.0224861176    0.0177546168    0.0000000000
N       -0.9084407957   -0.6701002531    0.0000000000
H        0.8859651376    0.6523076949    0.0000000000
3    
Image 18/21, Energy =   -93.4285868205 (+0.000 kcal/mol)
C        0.0240066958    0.0158998272   -0.0000000000
N       -0.9721647971   -0.5732657673    0.0000000000
H        0.9481446251    0.5573352202    0.0000000000
3    
Image 19/21, Energy =   -93.4285846758 (+0.002 kcal/mol)
C        0.0200078145    0.0208808717    0.0000000000
N       -0.8715610790   -0.7177437716    0.0000000000
H        0.8515495334    0.6968234534    0.0000000000
3    
Image 20/21, Energy =   -93.4285861953 (+0.001 kcal/mol)
C        0.0194260556    0.0213642891    0.0000000000
N       -0.7589320377   -0.8347584640    0.0000000000
H        0.7395059821    0.8133941749    0.0000000000
