3    
Image 0/21, Energy =   -93.4051520129 (+14.705 kcal/mol)
C       -0.7519862184   -0.8272338399    0.0000000000
N        0.0394753354    0.0434721365    0.0000000000
H        0.7125108830    0.7837617034    0.0000000000
3    
Image 1/21, Energy =   -93.4024366607 (+16.409 kcal/mol)
C       -0.6772233972   -0.8581245163   -0.0000000000
N       -0.0793826998    0.1566857527    0.0000000000
H        0.7566094987    0.7014437317   -0.0000000000
3    
Image 2/21, Energy =   -93.3959736756 (+20.465 kcal/mol)
C       -0.5986015098   -0.8578520967   -0.0000000000
N       -0.1705840745    0.2493733188   -0.0000000000
H        0.7691804442    0.6084842276    0.0000000000
3    
Image 3/21, Energy =   -93.3865702123 (+26.365 kcal/mol)
C       -0.5025364706   -0.8395505140    0.0000000000
N       -0.2483302731    0.3269420144   -0.0000000000
H        0.7508588982    0.5126102706    0.0000000000
3    
Image 4/21, Energy =   -93.3782541496 (+31.584 kcal/mol)
C       -0.4145491077   -0.8211049834    0.0000000000
N       -0.3023063280    0.3767692358   -0.0000000000
H        0.7168469027    0.4443411879   -0.0000000000
3    
Image 5/21, Energy =   -93.3724470733 (+35.228 kcal/mol)
C       -0.3210694851   -0.8122415493   -0.0000000000
N       -0.3697917077    0.3882066979    0.0000000000
H        0.6908624034    0.4240394040   -0.0000000000
3    
Image 6/21, Energy =   -93.3615974072 (+42.036 kcal/mol)
C       -0.1649242239   -0.7944879403    0.0000000000
N       -0.5055647062    0.3575635168    0.0000000000
H        0.6704892891    0.4369286067   -0.0000000000
3    
Image 7/21, Energy =   -93.3568098050 (+45.040 kcal/mol)
C       -0.1104375016   -0.7493248066    0.0000000000
N       -0.5564412823    0.3622266006    0.0000000000
H        0.6668782078    0.3871024995   -0.0000000000
3    
Image 8/21, Energy =   -93.3504640941 (+49.022 kcal/mol)
C       -0.0633240670   -0.6933027285    0.0000000000
N       -0.6423126097    0.3512508847    0.0000000000
H        0.7056301891    0.3420563545    0.0000000000
3    
Image 9/21, Energy =   -93.3531650912 (+47.327 kcal/mol)
C       -0.0247875824   -0.6008870636    0.0000000000
N       -0.7644931752    0.3242582544   -0.0000000000
H        0.7892807511    0.2766450835   -0.0000000000
3    
Image 10/21, Energy =   -93.3719458050 (+35.542 kcal/mol)
C        0.0043495464   -0.4916123363    0.0000000000
N       -0.8803117484    0.2809601348   -0.0000000000
H        0.8759724939    0.2106640316   -0.0000000000
3    
Image 11/21, Energy =   -93.3976285005 (+19.426 kcal/mol)
C        0.0523912530   -0.3556861061   -0.0000000000
N       -1.0080696078    0.1195219906    0.0000000000
H        0.9556983792    0.2361769411   -0.0000000000
3    
Image 12/21, Energy =   -93.4148720111 (+8.606 kcal/mol)
C        0.0816780151   -0.2288580092    0.0000000000
N       -1.0707287476   -0.1209811844   -0.0000000000
H        0.9890456344    0.3498608207    0.0000000000
3    
Image 13/21, Energy =   -93.4222161994 (+3.997 kcal/mol)
C        0.0874429513   -0.1428632322   -0.0000000000
N       -1.0549437901   -0.3232056115    0.0000000000
H        0.9674843995    0.4660740999   -0.0000000000
3    
Image 14/21, Energy =   -93.4258997488 (+1.686 kcal/mol)
C        0.0793705381   -0.0669159530    0.0000000000
N       -0.9922344202   -0.5018526684   -0.0000000000
H        0.9128542462    0.5687682659   -0.0000000000
3    
Image 15/21, Energy =   -93.4273314926 (+0.787 kcal/mol)
C        0.0623689885   -0.0289844765   -0.0000000000
N       -0.9221248256   -0.6269478724    0.0000000000
H        0.8597586385    0.6559231991   -0.0000000000
3    
Image 16/21, Energy =   -93.4275775239 (+0.633 kcal/mol)
C        0.0458135929    0.0094988697   -0.0000000000
N       -0.8376270426   -0.7409745236   -0.0000000000
H        0.7918164351    0.7314688256   -0.0000000000
3    
Image 17/21, Energy =   -93.4271420814 (+0.906 kcal/mol)
C        0.0695318265   -0.0444961182    0.0000000000
N       -0.9259341490   -0.6462949091    0.0000000000
H        0.8564060138    0.6907817885    0.0000000000
3    
Image 18/21, Energy =   -93.4249999810 (+2.250 kcal/mol)
C        0.0889218755   -0.0827218691    0.0000000000
N       -0.9795799330   -0.5638668156    0.0000000000
H        0.8906449279    0.6465866588    0.0000000000
3    
Image 19/21, Energy =   -93.4274645058 (+0.704 kcal/mol)
C        0.0630107120   -0.0270161459    0.0000000000
N       -0.9003912463   -0.6892732201    0.0000000000
H        0.8373849318    0.7162793447   -0.0000000000
3    
Image 20/21, Energy =   -93.4285861953 (+0.000 kcal/mol)
C        0.0194260556    0.0213642891    0.0000000000
N       -0.7589320377   -0.8347584640    0.0000000000
H        0.7395059821    0.8133941749    0.0000000000
