3    
Image 0/21, Energy =   -93.4051520129 (+14.705 kcal/mol)
C       -0.7519862184   -0.8272338399    0.0000000000
N        0.0394753354    0.0434721365    0.0000000000
H        0.7125108830    0.7837617034    0.0000000000
3    
Image 1/21, Energy =   -93.4020280724 (+16.665 kcal/mol)
C       -0.6666191171   -0.8642471908   -0.0000000000
N       -0.0906477175    0.1648689006    0.0000000000
H        0.7572636503    0.6993953760   -0.0000000000
3    
Image 2/21, Energy =   -93.3953893896 (+20.831 kcal/mol)
C       -0.5576018798   -0.8800193307    0.0000000000
N       -0.1863246697    0.2481867880    0.0000000000
H        0.7438954085    0.6318484234    0.0000000000
3    
Image 3/21, Energy =   -93.3889197958 (+24.891 kcal/mol)
C       -0.4462963771   -0.8900951193    0.0000000000
N       -0.2593304372    0.2880456755    0.0000000000
H        0.7056040197    0.6020632947    0.0000000000
3    
Image 4/21, Energy =   -93.3771995095 (+32.246 kcal/mol)
C       -0.2687618571   -0.8700347538    0.0000000000
N       -0.3744559104    0.3254245024    0.0000000000
H        0.6432072537    0.5446268368   -0.0000000000
3    
Image 5/21, Energy =   -93.3622707961 (+41.614 kcal/mol)
C       -0.1103777514   -0.7794290871    0.0000000000
N       -0.5115937910    0.3532123936    0.0000000000
H        0.6219711517    0.4262321198   -0.0000000000
3    
Image 6/21, Energy =   -93.3547587858 (+46.327 kcal/mol)
C       -0.0642287668   -0.7191278183    0.0000000000
N       -0.5891139484    0.3566093242    0.0000000000
H        0.6533289485    0.3625388555   -0.0000000000
3    
Image 7/21, Energy =   -93.3535333276 (+47.096 kcal/mol)
C       -0.0118937214   -0.5954877042    0.0000000000
N       -0.7518386099    0.3292854829    0.0000000000
H        0.7637102155    0.2662400665   -0.0000000000
3    
Image 8/21, Energy =   -93.3747453778 (+33.786 kcal/mol)
C        0.0082317627   -0.4717564716    0.0000000000
N       -0.8852562307    0.2842715862    0.0000000000
H        0.8770303478    0.1875208248   -0.0000000000
3    
Image 9/21, Energy =   -93.4045360783 (+15.092 kcal/mol)
C        0.0157841086   -0.3141179483   -0.0000000000
N       -1.0126867337    0.2177051293    0.0000000000
H        0.9969201530    0.0964605908   -0.0000000000
3    
Image 10/21, Energy =   -93.4218317054 (+4.239 kcal/mol)
C        0.0316872474   -0.1689001819   -0.0000000000
N       -1.0974646898    0.0897367881    0.0000000000
H        1.0657779021    0.0792053383   -0.0000000000
3    
Image 11/21, Energy =   -93.4272480617 (+0.840 kcal/mol)
C        0.0378882365   -0.0717996858    0.0000000000
N       -1.1187248757   -0.0952243194   -0.0000000000
H        1.0808224670    0.1670550916   -0.0000000000
3    
Image 12/21, Energy =   -93.4281600137 (+0.267 kcal/mol)
C        0.0381755631   -0.0349119790   -0.0000000000
N       -1.1001718423   -0.2456758361    0.0000000000
H        1.0619732403    0.2805983567   -0.0000000000
3    
Image 13/21, Energy =   -93.4284463838 (+0.088 kcal/mol)
C        0.0359505828   -0.0127935282   -0.0000000000
N       -1.0620588422   -0.3798216452   -0.0000000000
H        1.0260770457    0.3926090435   -0.0000000000
3    
Image 14/21, Energy =   -93.4285484725 (+0.024 kcal/mol)
C        0.0309083412    0.0034122417    0.0000000000
N       -0.9896781807   -0.5398351678    0.0000000000
H        0.9587613907    0.5364039079    0.0000000000
3    
Image 15/21, Energy =   -93.4285767096 (+0.006 kcal/mol)
C        0.0262833557    0.0126299781   -0.0000000000
N       -0.9095228842   -0.6666456089    0.0000000000
H        0.8832459031    0.6539890590   -0.0000000000
3    
Image 16/21, Energy =   -93.4285833309 (+0.002 kcal/mol)
C        0.0212289062    0.0203416646   -0.0000000000
N       -0.8280657241   -0.7659542621    0.0000000000
H        0.8068375237    0.7455955681   -0.0000000000
3    
Image 17/21, Energy =   -93.4285564805 (+0.019 kcal/mol)
C        0.0298535488    0.0076215519    0.0000000000
N       -0.9116727028   -0.6655887391    0.0000000000
H        0.8818308226    0.6579366716   -0.0000000000
3    
Image 18/21, Energy =   -93.4284947453 (+0.057 kcal/mol)
C        0.0345007178   -0.0028182078   -0.0000000000
N       -0.9774706185   -0.5647222636    0.0000000000
H        0.9429548337    0.5675201170    0.0000000000
3    
Image 19/21, Energy =   -93.4285730856 (+0.008 kcal/mol)
C        0.0268952586    0.0129439541   -0.0000000000
N       -0.8749887239   -0.7144288814   -0.0000000000
H        0.8481007185    0.7014593839    0.0000000000
3    
Image 20/21, Energy =   -93.4285861953 (+0.000 kcal/mol)
C        0.0194260556    0.0213642891    0.0000000000
N       -0.7589320377   -0.8347584640    0.0000000000
H        0.7395059821    0.8133941749    0.0000000000
