3    
Image 0/21, Energy =   -93.4051520129 (+14.706 kcal/mol)
C       -0.7519862184   -0.8272338399    0.0000000000
N        0.0394753354    0.0434721365    0.0000000000
H        0.7125108830    0.7837617034    0.0000000000
3    
Image 1/21, Energy =   -93.4049219135 (+14.850 kcal/mol)
C       -0.6596782264   -0.9008599318   -0.0000000000
N       -0.0042638643    0.0761628723   -0.0000000000
H        0.6639376849    0.8247414762   -0.0000000000
3    
Image 2/21, Energy =   -93.4027841575 (+16.192 kcal/mol)
C       -0.4899912757   -0.9827278470   -0.0000000000
N       -0.1040421869    0.1308646739    0.0000000000
H        0.5939707556    0.8519425481   -0.0000000000
3    
Image 3/21, Energy =   -93.3940471133 (+21.674 kcal/mol)
C       -0.3491837996   -0.9705510562   -0.0000000000
N       -0.2486905691    0.2132727454    0.0000000000
H        0.5977921602    0.7573260882   -0.0000000000
3    
Image 4/21, Energy =   -93.3784360188 (+31.470 kcal/mol)
C       -0.2242589958   -0.8918971009   -0.0000000000
N       -0.3831110771    0.2971424040    0.0000000000
H        0.6073116210    0.5948067827   -0.0000000000
3    
Image 5/21, Energy =   -93.3629192618 (+41.207 kcal/mol)
C       -0.1059814511   -0.7833834119    0.0000000000
N       -0.5051024419    0.3508057939    0.0000000000
H        0.6110227159    0.4326421363   -0.0000000000
3    
Image 6/21, Energy =   -93.3558038026 (+45.672 kcal/mol)
C       -0.0648017717   -0.7249763541    0.0000000000
N       -0.5757696961    0.3588538183   -0.0000000000
H        0.6405019670    0.3661833504    0.0000000000
3    
Image 7/21, Energy =   -93.3505480087 (+48.970 kcal/mol)
C       -0.0267228738   -0.6491399541    0.0000000000
N       -0.6775190518    0.3477456944    0.0000000000
H        0.7041910300    0.3014633401   -0.0000000000
3    
Image 8/21, Energy =   -93.3735645169 (+34.527 kcal/mol)
C        0.0069294036   -0.4770340208    0.0000000000
N       -0.8785559176    0.2899013213   -0.0000000000
H        0.8715982879    0.1871985209    0.0000000000
3    
Image 9/21, Energy =   -93.4061131908 (+14.103 kcal/mol)
C        0.0195380597   -0.3042451316    0.0000000000
N       -1.0212700987    0.2102048779    0.0000000000
H        1.0017036837    0.0941355272   -0.0000000000
3    
Image 10/21, Energy =   -93.4254125151 (+1.992 kcal/mol)
C        0.0240982429   -0.1172346501    0.0000000000
N       -1.1072316336    0.1232852535    0.0000000000
H        1.0831098976   -0.0059835750   -0.0000000000
3    
Image 11/21, Energy =   -93.4285857795 (+0.001 kcal/mol)
C        0.0283811541    0.0012162770    0.0000000000
N       -1.1265067368   -0.0838416971    0.0000000000
H        1.0980976600    0.0826384265   -0.0000000000
3    
Image 12/21, Energy =   -93.4285874427 (+0.000 kcal/mol)
C        0.0278825868    0.0064106544   -0.0000000000
N       -1.1028595341   -0.2420542342    0.0000000000
H        1.0749399602    0.2356437996   -0.0000000000
3    
Image 13/21, Energy =   -93.4285786350 (+0.006 kcal/mol)
C        0.0284571207    0.0040291001   -0.0000000000
N       -1.0637306286   -0.3778946221   -0.0000000000
H        1.0352228724    0.3738489868   -0.0000000000
3    
Image 14/21, Energy =   -93.4285844568 (+0.002 kcal/mol)
C        0.0268105493    0.0110057342    0.0000000000
N       -0.9920944707   -0.5394851785    0.0000000000
H        0.9652527757    0.5284450852    0.0000000000
3    
Image 15/21, Energy =   -93.4285864203 (+0.001 kcal/mol)
C        0.0241556136    0.0158072582   -0.0000000000
N       -0.9117975529   -0.6661470283    0.0000000000
H        0.8876261936    0.6502961268   -0.0000000000
3    
Image 16/21, Energy =   -93.4285873938 (+0.000 kcal/mol)
C        0.0208614329    0.0193070065   -0.0000000000
N       -0.8349987521   -0.7598103492   -0.0000000000
H        0.8141181401    0.7404669215   -0.0000000000
3    
Image 17/21, Energy =   -93.4285873953 (+0.000 kcal/mol)
C        0.0224861176    0.0177546168    0.0000000000
N       -0.9084407957   -0.6701002531    0.0000000000
H        0.8859651376    0.6523076949    0.0000000000
3    
Image 18/21, Energy =   -93.4285868205 (+0.000 kcal/mol)
C        0.0240066958    0.0158998272   -0.0000000000
N       -0.9721647971   -0.5732657673    0.0000000000
H        0.9481446251    0.5573352202    0.0000000000
3    
Image 19/21, Energy =   -93.4285859336 (+0.001 kcal/mol)
C        0.0231728554    0.0164695022    0.0000000000
N       -0.8732981550   -0.7148559587    0.0000000000
H        0.8501120667    0.6983435742    0.0000000000
3    
Image 20/21, Energy =   -93.4285861953 (+0.001 kcal/mol)
C        0.0194260556    0.0213642891    0.0000000000
N       -0.7589320377   -0.8347584640    0.0000000000
H        0.7395059821    0.8133941749    0.0000000000
