3    
Image 0/21, Energy =   -93.4051520129 (+14.706 kcal/mol)
C       -0.7519862184   -0.8272338399    0.0000000000
N        0.0394753354    0.0434721365    0.0000000000
H        0.7125108830    0.7837617034    0.0000000000
3    
Image 1/21, Energy =   -93.4048268806 (+14.910 kcal/mol)
C       -0.6599156083   -0.8996446959   -0.0000000000
N       -0.0113439796    0.0808327334   -0.0000000000
H        0.6712530548    0.8188560397   -0.0000000000
3    
Image 2/21, Energy =   -93.4026241878 (+16.292 kcal/mol)
C       -0.4948102369   -0.9793449103   -0.0000000000
N       -0.1071352694    0.1347893229    0.0000000000
H        0.6018845066    0.8446325926   -0.0000000000
3    
Image 3/21, Energy =   -93.3940471133 (+21.674 kcal/mol)
C       -0.3491837996   -0.9705510562   -0.0000000000
N       -0.2486905691    0.2132727454    0.0000000000
H        0.5977921602    0.7573260882   -0.0000000000
3    
Image 4/21, Energy =   -93.3784360188 (+31.470 kcal/mol)
C       -0.2242589958   -0.8918971009   -0.0000000000
N       -0.3831110771    0.2971424040    0.0000000000
H        0.6073116210    0.5948067827   -0.0000000000
3    
Image 5/21, Energy =   -93.3628605055 (+41.244 kcal/mol)
C       -0.1052336525   -0.7828071401    0.0000000000
N       -0.5056807022    0.3506084621    0.0000000000
H        0.6108572644    0.4322615370   -0.0000000000
3    
Image 6/21, Energy =   -93.3557731062 (+45.692 kcal/mol)
C       -0.0648587776   -0.7260401223    0.0000000000
N       -0.5768800718    0.3592110806    0.0000000000
H        0.6416700822    0.3668879707    0.0000000000
3    
Image 7/21, Energy =   -93.3505569255 (+48.965 kcal/mol)
C       -0.0274687622   -0.6516146538    0.0000000000
N       -0.6757703172    0.3484677524    0.0000000000
H        0.7031874607    0.3032133620   -0.0000000000
3    
Image 8/21, Energy =   -93.3735989307 (+34.506 kcal/mol)
C        0.0076912498   -0.4775452923    0.0000000000
N       -0.8794896317    0.2902097028    0.0000000000
H        0.8717702467    0.1873994855    0.0000000000
3    
Image 9/21, Energy =   -93.4061844424 (+14.058 kcal/mol)
C        0.0190456256   -0.3035537231    0.0000000000
N       -1.0211936577    0.2089479351    0.0000000000
H        1.0021206605    0.0947002124   -0.0000000000
3    
Image 10/21, Energy =   -93.4254407989 (+1.975 kcal/mol)
C        0.0232984431   -0.1166261521    0.0000000000
N       -1.1067406118    0.1248743466    0.0000000000
H        1.0834204136   -0.0081812359   -0.0000000000
3    
Image 11/21, Energy =   -93.4285854182 (+0.001 kcal/mol)
C        0.0279120194    0.0027045053    0.0000000000
N       -1.1262786691   -0.0836970124    0.0000000000
H        1.0983404618    0.0810050171   -0.0000000000
3    
Image 12/21, Energy =   -93.4285874427 (+0.000 kcal/mol)
C        0.0278825868    0.0064106544   -0.0000000000
N       -1.1028595341   -0.2420542342    0.0000000000
H        1.0749399602    0.2356437996   -0.0000000000
3    
Image 13/21, Energy =   -93.4285743892 (+0.008 kcal/mol)
C        0.0290832116    0.0059532883   -0.0000000000
N       -1.0645397658   -0.3792868838   -0.0000000000
H        1.0354075135    0.3733168734   -0.0000000000
3    
Image 14/21, Energy =   -93.4285827561 (+0.003 kcal/mol)
C        0.0255846252    0.0112562162    0.0000000000
N       -0.9912412222   -0.5397877561    0.0000000000
H        0.9656271852    0.5284976241    0.0000000000
3    
Image 15/21, Energy =   -93.4285845283 (+0.002 kcal/mol)
C        0.0232411561    0.0155936247   -0.0000000000
N       -0.9110757925   -0.6661495298    0.0000000000
H        0.8878204628    0.6505130777   -0.0000000000
3    
Image 16/21, Energy =   -93.4285866089 (+0.001 kcal/mol)
C        0.0211263460    0.0195270213   -0.0000000000
N       -0.8349384311   -0.7605203225   -0.0000000000
H        0.8137940928    0.7409580825   -0.0000000000
3    
Image 17/21, Energy =   -93.4285873953 (+0.000 kcal/mol)
C        0.0224861176    0.0177546168    0.0000000000
N       -0.9084407957   -0.6701002531    0.0000000000
H        0.8859651376    0.6523076949    0.0000000000
3    
Image 18/21, Energy =   -93.4285868205 (+0.000 kcal/mol)
C        0.0240066958    0.0158998272   -0.0000000000
N       -0.9721647971   -0.5732657673    0.0000000000
H        0.9481446251    0.5573352202    0.0000000000
3    
Image 19/21, Energy =   -93.4285842091 (+0.002 kcal/mol)
C        0.0235695347    0.0173726806    0.0000000000
N       -0.8736538535   -0.7155279182    0.0000000000
H        0.8500725449    0.6981131123    0.0000000000
3    
Image 20/21, Energy =   -93.4285861953 (+0.001 kcal/mol)
C        0.0194260556    0.0213642891    0.0000000000
N       -0.7589320377   -0.8347584640    0.0000000000
H        0.7395059821    0.8133941749    0.0000000000
