3    
Image 0/21, Energy =   -93.4051520129 (+14.705 kcal/mol)
C       -0.7519862184   -0.8272338399    0.0000000000
N        0.0394753354    0.0434721365    0.0000000000
H        0.7125108830    0.7837617034    0.0000000000
3    
Image 1/21, Energy =   -93.4024321913 (+16.412 kcal/mol)
C       -0.6774553993   -0.8586229032   -0.0000000000
N       -0.0801897867    0.1571244868    0.0000000000
H        0.7576492575    0.7015046579   -0.0000000000
3    
Image 2/21, Energy =   -93.3959274873 (+20.494 kcal/mol)
C       -0.5975137488   -0.8577784144   -0.0000000000
N       -0.1709730265    0.2495577355   -0.0000000000
H        0.7684799504    0.6082272813    0.0000000000
3    
Image 3/21, Energy =   -93.3865389292 (+26.385 kcal/mol)
C       -0.4990969457   -0.8421008541    0.0000000000
N       -0.2488968050    0.3270550592   -0.0000000000
H        0.7479836151    0.5150483621    0.0000000000
3    
Image 4/21, Energy =   -93.3787228851 (+31.290 kcal/mol)
C       -0.4130258374   -0.8304729078    0.0000000000
N       -0.3041063226    0.3741655231   -0.0000000000
H        0.7171217450    0.4563143998   -0.0000000000
3    
Image 5/21, Energy =   -93.3736062427 (+34.500 kcal/mol)
C       -0.3176135212   -0.8222614828   -0.0000000000
N       -0.3653573899    0.3766041830    0.0000000000
H        0.6829721363    0.4456634899   -0.0000000000
3    
Image 6/21, Energy =   -93.3644457616 (+40.249 kcal/mol)
C       -0.1493690756   -0.7924768803    0.0000000000
N       -0.4838254523    0.3572827726    0.0000000000
H        0.6331943286    0.4351992833   -0.0000000000
3    
Image 7/21, Energy =   -93.3583198304 (+44.093 kcal/mol)
C       -0.0913801009   -0.7409155535    0.0000000000
N       -0.5364042771    0.3706003514    0.0000000000
H        0.6277832572    0.3703199388   -0.0000000000
3    
Image 8/21, Energy =   -93.3518523587 (+48.151 kcal/mol)
C       -0.0495938179   -0.6833258150    0.0000000000
N       -0.6266594609    0.3565020374    0.0000000000
H        0.6762463891    0.3268297592    0.0000000000
3    
Image 9/21, Energy =   -93.3537746431 (+46.945 kcal/mol)
C       -0.0156910062   -0.5948919887    0.0000000000
N       -0.7604606866    0.3228906981   -0.0000000000
H        0.7761510794    0.2720206369   -0.0000000000
3    
Image 10/21, Energy =   -93.3725304205 (+35.176 kcal/mol)
C        0.0034260726   -0.4872997513    0.0000000000
N       -0.8791281275    0.2863149312   -0.0000000000
H        0.8757152106    0.2009992230   -0.0000000000
3    
Image 11/21, Energy =   -93.3998882714 (+18.008 kcal/mol)
C        0.0457207647   -0.3433707812   -0.0000000000
N       -1.0142536429    0.1330710472    0.0000000000
H        0.9685559841    0.2103150668   -0.0000000000
3    
Image 12/21, Energy =   -93.4173704631 (+7.038 kcal/mol)
C        0.0751488119   -0.2080632197    0.0000000000
N       -1.0813518974   -0.1176453120   -0.0000000000
H        1.0061968587    0.3257336410   -0.0000000000
3    
Image 13/21, Energy =   -93.4238222432 (+2.989 kcal/mol)
C        0.0788740654   -0.1233007067   -0.0000000000
N       -1.0620473533   -0.3263323682    0.0000000000
H        0.9831532423    0.4496397685   -0.0000000000
3    
Image 14/21, Energy =   -93.4268123058 (+1.113 kcal/mol)
C        0.0678648789   -0.0553357248    0.0000000000
N       -0.9945064378   -0.5052905260    0.0000000000
H        0.9266314259    0.5606245111   -0.0000000000
3    
Image 15/21, Energy =   -93.4277884589 (+0.501 kcal/mol)
C        0.0558316578   -0.0202590555   -0.0000000000
N       -0.9255318269   -0.6300181463    0.0000000000
H        0.8697037419    0.6502655252   -0.0000000000
3    
Image 16/21, Energy =   -93.4277521248 (+0.523 kcal/mol)
C        0.0369074689    0.0106354938   -0.0000000000
N       -0.8299385674   -0.7419024939   -0.0000000000
H        0.7930348149    0.7312583729   -0.0000000000
3    
Image 17/21, Energy =   -93.4275341285 (+0.660 kcal/mol)
C        0.0605289643   -0.0376864128    0.0000000000
N       -0.9236580877   -0.6462328949    0.0000000000
H        0.8631331384    0.6839078141    0.0000000000
3    
Image 18/21, Energy =   -93.4262207847 (+1.484 kcal/mol)
C        0.0723320246   -0.0694818642    0.0000000000
N       -0.9729385721   -0.5684295849    0.0000000000
H        0.9005923467    0.6379081578    0.0000000000
3    
Image 19/21, Energy =   -93.4278628368 (+0.454 kcal/mol)
C        0.0506698594   -0.0249441854    0.0000000000
N       -0.8939193624   -0.6870511206    0.0000000000
H        0.8432545967    0.7119830641    0.0000000000
3    
Image 20/21, Energy =   -93.4285861953 (+0.000 kcal/mol)
C        0.0194260556    0.0213642891    0.0000000000
N       -0.7589320377   -0.8347584640    0.0000000000
H        0.7395059821    0.8133941749    0.0000000000
