3    
Image 0/21, Energy =   -93.4051520129 (+14.706 kcal/mol)
C       -0.7519862184   -0.8272338399    0.0000000000
N        0.0394753354    0.0434721365    0.0000000000
H        0.7125108830    0.7837617034    0.0000000000
3    
Image 1/21, Energy =   -93.4051570045 (+14.703 kcal/mol)
C       -0.6546356002   -0.9059112643   -0.0000000000
N        0.0308398158    0.0489802322   -0.0000000000
H        0.6238017550    0.8569739787   -0.0000000000
3    
Image 2/21, Energy =   -93.4034452056 (+15.777 kcal/mol)
C       -0.4605207591   -1.0027615398   -0.0000000000
N       -0.0883284587    0.1159455998    0.0000000000
H        0.5487834263    0.8869069710   -0.0000000000
3    
Image 3/21, Energy =   -93.3940471133 (+21.674 kcal/mol)
C       -0.3491837996   -0.9705510562   -0.0000000000
N       -0.2486905691    0.2132727454    0.0000000000
H        0.5977921602    0.7573260882   -0.0000000000
3    
Image 4/21, Energy =   -93.3783861704 (+31.502 kcal/mol)
C       -0.2239863849   -0.8914664393    0.0000000000
N       -0.3833564821    0.2973187995    0.0000000000
H        0.6072813645    0.5942012967   -0.0000000000
3    
Image 5/21, Energy =   -93.3630785325 (+41.108 kcal/mol)
C       -0.1107726364   -0.7836107695    0.0000000000
N       -0.5020171217    0.3518634143   -0.0000000000
H        0.6127155264    0.4318235741    0.0000000000
3    
Image 6/21, Energy =   -93.3559107945 (+45.605 kcal/mol)
C       -0.0647043490   -0.7248601728    0.0000000000
N       -0.5738067507    0.3587814619   -0.0000000000
H        0.6384461431    0.3661535168    0.0000000000
3    
Image 7/21, Energy =   -93.3505450071 (+48.972 kcal/mol)
C       -0.0256470082   -0.6477184393    0.0000000000
N       -0.6795216459    0.3478247087   -0.0000000000
H        0.7051185044    0.2999670444   -0.0000000000
3    
Image 8/21, Energy =   -93.3735788062 (+34.519 kcal/mol)
C        0.0070482643   -0.4769532017    0.0000000000
N       -0.8786035895    0.2902265596   -0.0000000000
H        0.8715270518    0.1867956557    0.0000000000
3    
Image 9/21, Energy =   -93.4061763238 (+14.063 kcal/mol)
C        0.0174898017   -0.3038075855    0.0000000000
N       -1.0199983053    0.2162268509   -0.0000000000
H        1.0024763300    0.0876850927    0.0000000000
3    
Image 10/21, Energy =   -93.4253924172 (+2.005 kcal/mol)
C        0.0235358527   -0.1175760182    0.0000000000
N       -1.1066139526    0.1258675293    0.0000000000
H        1.0830544197   -0.0082233089   -0.0000000000
3    
Image 11/21, Energy =   -93.4285857993 (+0.001 kcal/mol)
C        0.0290903668    0.0009839562    0.0000000000
N       -1.1259262856   -0.0848676458    0.0000000000
H        1.0967966274    0.0838967201   -0.0000000000
3    
Image 12/21, Energy =   -93.4285874427 (+0.000 kcal/mol)
C        0.0278825868    0.0064106544   -0.0000000000
N       -1.1028595341   -0.2420542342    0.0000000000
H        1.0749399602    0.2356437996   -0.0000000000
3    
Image 13/21, Energy =   -93.4285783154 (+0.006 kcal/mol)
C        0.0289591738    0.0038893490   -0.0000000000
N       -1.0632903257   -0.3777966473   -0.0000000000
H        1.0342708340    0.3738872834   -0.0000000000
3    
Image 14/21, Energy =   -93.4285837632 (+0.002 kcal/mol)
C        0.0270868507    0.0101215811    0.0000000000
N       -0.9921130937   -0.5386139324    0.0000000000
H        0.9649924419    0.5284571348    0.0000000000
3    
Image 15/21, Energy =   -93.4285867697 (+0.001 kcal/mol)
C        0.0242207014    0.0153429129   -0.0000000000
N       -0.9118178113   -0.6654979076    0.0000000000
H        0.8875788957    0.6501100035   -0.0000000000
3    
Image 16/21, Energy =   -93.4285875901 (+0.000 kcal/mol)
C        0.0209913142    0.0194212793   -0.0000000000
N       -0.8357704663   -0.7588414100   -0.0000000000
H        0.8147580849    0.7393817664   -0.0000000000
3    
Image 17/21, Energy =   -93.4285873953 (+0.000 kcal/mol)
C        0.0224861176    0.0177546168    0.0000000000
N       -0.9084407957   -0.6701002531    0.0000000000
H        0.8859651376    0.6523076949    0.0000000000
3    
Image 18/21, Energy =   -93.4285868205 (+0.000 kcal/mol)
C        0.0240066958    0.0158998272   -0.0000000000
N       -0.9721647971   -0.5732657673    0.0000000000
H        0.9481446251    0.5573352202    0.0000000000
3    
Image 19/21, Energy =   -93.4285862262 (+0.001 kcal/mol)
C        0.0236923966    0.0162592029    0.0000000000
N       -0.8737111147   -0.7147610875    0.0000000000
H        0.8500032010    0.6984577124    0.0000000000
3    
Image 20/21, Energy =   -93.4285861953 (+0.001 kcal/mol)
C        0.0194260556    0.0213642891    0.0000000000
N       -0.7589320377   -0.8347584640    0.0000000000
H        0.7395059821    0.8133941749    0.0000000000
