3    
Image 0/21, Energy =   -93.4051520129 (+14.705 kcal/mol)
C       -0.7519862184   -0.8272338399    0.0000000000
N        0.0394753354    0.0434721365    0.0000000000
H        0.7125108830    0.7837617034    0.0000000000
3    
Image 1/21, Energy =   -93.4020944475 (+16.624 kcal/mol)
C       -0.6619643737   -0.8689142426    0.0000000000
N       -0.0905043900    0.1631843127    0.0000000000
H        0.7524598582    0.7057514199   -0.0000000000
3    
Image 2/21, Energy =   -93.3963536328 (+20.226 kcal/mol)
C       -0.5474894950   -0.8946582220   -0.0000000000
N       -0.1822117266    0.2341986559    0.0000000000
H        0.7296631694    0.6604789456    0.0000000000
3    
Image 3/21, Energy =   -93.3905336841 (+23.878 kcal/mol)
C       -0.4324250057   -0.9092671927    0.0000000000
N       -0.2552241061    0.2680194848    0.0000000000
H        0.6876241125    0.6412680738   -0.0000000000
3    
Image 4/21, Energy =   -93.3777650334 (+31.891 kcal/mol)
C       -0.2569432490   -0.8767028672    0.0000000000
N       -0.3755452260    0.3143635407    0.0000000000
H        0.6324714073    0.5623589852   -0.0000000000
3    
Image 5/21, Energy =   -93.3624005614 (+41.532 kcal/mol)
C       -0.1077080128   -0.7774428002   -0.0000000000
N       -0.5058474140    0.3556016670    0.0000000000
H        0.6135515006    0.4218643558   -0.0000000000
3    
Image 6/21, Energy =   -93.3547865242 (+46.310 kcal/mol)
C       -0.0607187446   -0.7170819327    0.0000000000
N       -0.5885079662    0.3572163424    0.0000000000
H        0.6492071212    0.3598924479   -0.0000000000
3    
Image 7/21, Energy =   -93.3521112371 (+47.989 kcal/mol)
C       -0.0138189406   -0.6095238452    0.0000000000
N       -0.7316610960    0.3357025414    0.0000000000
H        0.7454507819    0.2738629146   -0.0000000000
3    
Image 8/21, Energy =   -93.3748704112 (+33.707 kcal/mol)
C        0.0111761519   -0.4701325173    0.0000000000
N       -0.8864653727    0.2811545420    0.0000000000
H        0.8752879720    0.1890195931   -0.0000000000
3    
Image 9/21, Energy =   -93.4049951294 (+14.804 kcal/mol)
C        0.0167362628   -0.3113973964   -0.0000000000
N       -1.0148335386    0.2182120203    0.0000000000
H        0.9981061651    0.0932454024   -0.0000000000
3    
Image 10/21, Energy =   -93.4232977923 (+3.319 kcal/mol)
C        0.0275789085   -0.1500110307   -0.0000000000
N       -1.1006689564    0.1111774922    0.0000000000
H        1.0730876773    0.0388836313   -0.0000000000
3    
Image 11/21, Energy =   -93.4280960468 (+0.308 kcal/mol)
C        0.0310402619   -0.0420600740    0.0000000000
N       -1.1234628763   -0.0923427761   -0.0000000000
H        1.0924098369    0.1344265131   -0.0000000000
3    
Image 12/21, Energy =   -93.4285214396 (+0.041 kcal/mol)
C        0.0307687957   -0.0095248377   -0.0000000000
N       -1.1003568864   -0.2527977345    0.0000000000
H        1.0695650534    0.2623261562   -0.0000000000
3    
Image 13/21, Energy =   -93.4285552704 (+0.019 kcal/mol)
C        0.0280012348    0.0015651498   -0.0000000000
N       -1.0609900187   -0.3859713352   -0.0000000000
H        1.0329572297    0.3843939161   -0.0000000000
3    
Image 14/21, Energy =   -93.4285723333 (+0.009 kcal/mol)
C        0.0255497546    0.0098205844    0.0000000000
N       -0.9901692327   -0.5439439192    0.0000000000
H        0.9646102317    0.5340996837    0.0000000000
3    
Image 15/21, Energy =   -93.4285797915 (+0.004 kcal/mol)
C        0.0231072376    0.0149379281   -0.0000000000
N       -0.9101429690   -0.6689704982    0.0000000000
H        0.8870406917    0.6540026534   -0.0000000000
3    
Image 16/21, Energy =   -93.4285807671 (+0.003 kcal/mol)
C        0.0204699297    0.0190679252   -0.0000000000
N       -0.8302158479   -0.7670498555   -0.0000000000
H        0.8097441311    0.7479628768   -0.0000000000
3    
Image 17/21, Energy =   -93.4285839915 (+0.001 kcal/mol)
C        0.0250524229    0.0139135508    0.0000000000
N       -0.9095084914   -0.6682488519    0.0000000000
H        0.8844673013    0.6543003058    0.0000000000
3    
Image 18/21, Energy =   -93.4285770806 (+0.006 kcal/mol)
C        0.0278555709    0.0089885371   -0.0000000000
N       -0.9738603019   -0.5697261771    0.0000000000
H        0.9459909975    0.5607109474    0.0000000000
3    
Image 19/21, Energy =   -93.4285807298 (+0.003 kcal/mol)
C        0.0243127303    0.0170755763   -0.0000000000
N       -0.8731925148   -0.7158004839   -0.0000000000
H        0.8488860237    0.6986957740    0.0000000000
3    
Image 20/21, Energy =   -93.4285861953 (+0.000 kcal/mol)
C        0.0194260556    0.0213642891    0.0000000000
N       -0.7589320377   -0.8347584640    0.0000000000
H        0.7395059821    0.8133941749    0.0000000000
