3    
Image 0/21, Energy =   -93.4051520129 (+14.706 kcal/mol)
C       -0.7519862184   -0.8272338399    0.0000000000
N        0.0394753354    0.0434721365    0.0000000000
H        0.7125108830    0.7837617034    0.0000000000
3    
Image 1/21, Energy =   -93.4045911672 (+15.058 kcal/mol)
C       -0.6596366447   -0.8981606544   -0.0000000000
N       -0.0245352422    0.0931890711   -0.0000000000
H        0.6841609246    0.8050134774   -0.0000000000
3    
Image 2/21, Energy =   -93.4022558350 (+16.523 kcal/mol)
C       -0.5039317337   -0.9701313065   -0.0000000000
N       -0.1135292553    0.1423093908    0.0000000000
H        0.6174044799    0.8278928203   -0.0000000000
3    
Image 3/21, Energy =   -93.3940471133 (+21.674 kcal/mol)
C       -0.3491837996   -0.9705510562   -0.0000000000
N       -0.2486905691    0.2132727454    0.0000000000
H        0.5977921602    0.7573260882   -0.0000000000
3    
Image 4/21, Energy =   -93.3784360188 (+31.470 kcal/mol)
C       -0.2242589958   -0.8918971009   -0.0000000000
N       -0.3831110771    0.2971424040    0.0000000000
H        0.6073116210    0.5948067827   -0.0000000000
3    
Image 5/21, Energy =   -93.3627097081 (+41.339 kcal/mol)
C       -0.1044316926   -0.7813892201    0.0000000000
N       -0.5069530155    0.3507508683    0.0000000000
H        0.6113360434    0.4306979258   -0.0000000000
3    
Image 6/21, Energy =   -93.3557738186 (+45.691 kcal/mol)
C       -0.0655750063   -0.7251211785    0.0000000000
N       -0.5765745435    0.3574649670    0.0000000000
H        0.6420846820    0.3677121573   -0.0000000000
3    
Image 7/21, Energy =   -93.3505887679 (+48.945 kcal/mol)
C       -0.0290661335   -0.6553813475    0.0000000000
N       -0.6716837702    0.3491966708    0.0000000000
H        0.7006973027    0.3062467481   -0.0000000000
3    
Image 8/21, Energy =   -93.3736951113 (+34.445 kcal/mol)
C        0.0074824406   -0.4765698193    0.0000000000
N       -0.8796457685    0.2885211969    0.0000000000
H        0.8721359352    0.1881100109   -0.0000000000
3    
Image 9/21, Energy =   -93.4062709662 (+14.004 kcal/mol)
C        0.0190798204   -0.3029199926    0.0000000000
N       -1.0215741071    0.2079718052    0.0000000000
H        1.0024691394    0.0950414585   -0.0000000000
3    
Image 10/21, Energy =   -93.4254882804 (+1.945 kcal/mol)
C        0.0236352736   -0.1158420295    0.0000000000
N       -1.1066150566    0.1297816797    0.0000000000
H        1.0829612182   -0.0138721135   -0.0000000000
3    
Image 11/21, Energy =   -93.4285807687 (+0.004 kcal/mol)
C        0.0286097047    0.0071310116    0.0000000000
N       -1.1257586885   -0.0836982518    0.0000000000
H        1.0971259495    0.0765781375   -0.0000000000
3    
Image 12/21, Energy =   -93.4285874427 (+0.000 kcal/mol)
C        0.0278825868    0.0064106544   -0.0000000000
N       -1.1028595341   -0.2420542342    0.0000000000
H        1.0749399602    0.2356437996   -0.0000000000
3    
Image 13/21, Energy =   -93.4285851474 (+0.001 kcal/mol)
C        0.0261597853    0.0100859184   -0.0000000000
N       -1.0621888243   -0.3814744371   -0.0000000000
H        1.0359831536    0.3713705416   -0.0000000000
3    
Image 14/21, Energy =   -93.4285852604 (+0.001 kcal/mol)
C        0.0254394753    0.0139903882    0.0000000000
N       -0.9911583766   -0.5415896530    0.0000000000
H        0.9656927625    0.5275656503    0.0000000000
3    
Image 15/21, Energy =   -93.4285858994 (+0.001 kcal/mol)
C        0.0233910562    0.0171094346   -0.0000000000
N       -0.9110753315   -0.6674120900    0.0000000000
H        0.8876730204    0.6502610262   -0.0000000000
3    
Image 16/21, Energy =   -93.4285870764 (+0.000 kcal/mol)
C        0.0208476804    0.0191573665   -0.0000000000
N       -0.8337470138   -0.7610444982   -0.0000000000
H        0.8128834310    0.7418540999   -0.0000000000
3    
Image 17/21, Energy =   -93.4285873953 (+0.000 kcal/mol)
C        0.0224861176    0.0177546168    0.0000000000
N       -0.9084407957   -0.6701002531    0.0000000000
H        0.8859651376    0.6523076949    0.0000000000
3    
Image 18/21, Energy =   -93.4285868205 (+0.000 kcal/mol)
C        0.0240066958    0.0158998272   -0.0000000000
N       -0.9721647971   -0.5732657673    0.0000000000
H        0.9481446251    0.5573352202    0.0000000000
3    
Image 19/21, Energy =   -93.4285856137 (+0.001 kcal/mol)
C        0.0218513973    0.0178076579    0.0000000000
N       -0.8724576542   -0.7156505452    0.0000000000
H        0.8505973198    0.6978019132    0.0000000000
3    
Image 20/21, Energy =   -93.4285861953 (+0.001 kcal/mol)
C        0.0194260556    0.0213642891    0.0000000000
N       -0.7589320377   -0.8347584640    0.0000000000
H        0.7395059821    0.8133941749    0.0000000000
