3    
Image 0/21, Energy =   -93.4051520129 (+14.705 kcal/mol)
C       -0.7519862184   -0.8272338399    0.0000000000
N        0.0394753354    0.0434721365    0.0000000000
H        0.7125108830    0.7837617034    0.0000000000
3    
Image 1/21, Energy =   -93.4024320739 (+16.412 kcal/mol)
C       -0.6777580242   -0.8592311064   -0.0000000000
N       -0.0810559467    0.1573323506    0.0000000000
H        0.7588183177    0.7019058915   -0.0000000000
3    
Image 2/21, Energy =   -93.3959009175 (+20.510 kcal/mol)
C       -0.5965119768   -0.8581385779   -0.0000000000
N       -0.1711212415    0.2497412712   -0.0000000000
H        0.7676250393    0.6084046214    0.0000000000
3    
Image 3/21, Energy =   -93.3865730944 (+26.364 kcal/mol)
C       -0.4965019123   -0.8440336258    0.0000000000
N       -0.2500509397    0.3260005762   -0.0000000000
H        0.7465410693    0.5180363567    0.0000000000
3    
Image 4/21, Energy =   -93.3794828366 (+30.813 kcal/mol)
C       -0.4119201631   -0.8298046428   -0.0000000000
N       -0.3068434912    0.3621245483   -0.0000000000
H        0.7187519679    0.4676880305   -0.0000000000
3    
Image 5/21, Energy =   -93.3742972941 (+34.067 kcal/mol)
C       -0.3152077520   -0.8294321908   -0.0000000000
N       -0.3637484010    0.3702876274    0.0000000000
H        0.6789568048    0.4591520136   -0.0000000000
3    
Image 6/21, Energy =   -93.3648292566 (+40.008 kcal/mol)
C       -0.1425015544   -0.7941157624    0.0000000000
N       -0.4741433968    0.3622912680    0.0000000000
H        0.6166440599    0.4318305607   -0.0000000000
3    
Image 7/21, Energy =   -93.3584026571 (+44.041 kcal/mol)
C       -0.0870301889   -0.7423711524    0.0000000000
N       -0.5332506946    0.3722978692    0.0000000000
H        0.6202790841    0.3700779972   -0.0000000000
3    
Image 8/21, Energy =   -93.3519705049 (+48.077 kcal/mol)
C       -0.0434226899   -0.6835415806    0.0000000000
N       -0.6251924401    0.3608369097    0.0000000000
H        0.6686080754    0.3227117092    0.0000000000
3    
Image 9/21, Energy =   -93.3540253234 (+46.788 kcal/mol)
C       -0.0086762519   -0.5914450195    0.0000000000
N       -0.7587591473    0.3252101711   -0.0000000000
H        0.7674337996    0.2662561095   -0.0000000000
3    
Image 10/21, Energy =   -93.3727326690 (+35.049 kcal/mol)
C        0.0068338224   -0.4838008359    0.0000000000
N       -0.8776772087    0.2871994571   -0.0000000000
H        0.8708579670    0.1966175215   -0.0000000000
3    
Image 11/21, Energy =   -93.4010895982 (+17.254 kcal/mol)
C        0.0437662378   -0.3356493782   -0.0000000000
N       -1.0167885666    0.1423978921    0.0000000000
H        0.9730459728    0.1932687702   -0.0000000000
3    
Image 12/21, Energy =   -93.4188638324 (+6.101 kcal/mol)
C        0.0709591863   -0.1932156729    0.0000000000
N       -1.0854542630   -0.1156300732   -0.0000000000
H        1.0144871495    0.3088723117   -0.0000000000
3    
Image 13/21, Energy =   -93.4247140554 (+2.430 kcal/mol)
C        0.0729483841   -0.1105800620   -0.0000000000
N       -1.0643925840   -0.3283687363    0.0000000000
H        0.9914228037    0.4389561985   -0.0000000000
3    
Image 14/21, Energy =   -93.4273059894 (+0.803 kcal/mol)
C        0.0619306894   -0.0488615272    0.0000000000
N       -0.9988478657   -0.5086273373    0.0000000000
H        0.9369071586    0.5574855941   -0.0000000000
3    
Image 15/21, Energy =   -93.4281003627 (+0.305 kcal/mol)
C        0.0495364725   -0.0175246004   -0.0000000000
N       -0.9278369355   -0.6329138731    0.0000000000
H        0.8783044776    0.6504251679   -0.0000000000
3    
Image 16/21, Energy =   -93.4283292405 (+0.161 kcal/mol)
C        0.0340129733    0.0120577157   -0.0000000000
N       -0.8349366892   -0.7489585648   -0.0000000000
H        0.8009275678    0.7368909798   -0.0000000000
3    
Image 17/21, Energy =   -93.4277820266 (+0.505 kcal/mol)
C        0.0577623943   -0.0304728740    0.0000000000
N       -0.9229171300   -0.6476490796    0.0000000000
H        0.8651588050    0.6781089792    0.0000000000
3    
Image 18/21, Energy =   -93.4268866169 (+1.067 kcal/mol)
C        0.0684487311   -0.0570529395    0.0000000000
N       -0.9703465030   -0.5723529536    0.0000000000
H        0.9018839621    0.6294009132    0.0000000000
3    
Image 19/21, Energy =   -93.4280889938 (+0.312 kcal/mol)
C        0.0509986692   -0.0174303924    0.0000000000
N       -0.8953570013   -0.6891421410    0.0000000000
H        0.8443637874    0.7065587825    0.0000000000
3    
Image 20/21, Energy =   -93.4285861953 (+0.000 kcal/mol)
C        0.0194260556    0.0213642891    0.0000000000
N       -0.7589320377   -0.8347584640    0.0000000000
H        0.7395059821    0.8133941749    0.0000000000
