3    
Image 0/21, Energy =   -93.4051520129 (+14.705 kcal/mol)
C       -0.7519862184   -0.8272338399    0.0000000000
N        0.0394753354    0.0434721365    0.0000000000
H        0.7125108830    0.7837617034    0.0000000000
3    
Image 1/21, Energy =   -93.4020113066 (+16.676 kcal/mol)
C       -0.6679093681   -0.8630235192   -0.0000000000
N       -0.0902980014    0.1655262853    0.0000000000
H        0.7582059276    0.6975128620   -0.0000000000
3    
Image 2/21, Energy =   -93.3951059039 (+21.009 kcal/mol)
C       -0.5608875646   -0.8749802442    0.0000000000
N       -0.1874460589    0.2518588991    0.0000000000
H        0.7483053101    0.6231361586    0.0000000000
3    
Image 3/21, Energy =   -93.3883336694 (+25.259 kcal/mol)
C       -0.4503074555   -0.8837228287    0.0000000000
N       -0.2602878707    0.2953203740    0.0000000000
H        0.7105726895    0.5884145190    0.0000000000
3    
Image 4/21, Energy =   -93.3769392519 (+32.409 kcal/mol)
C       -0.2722706947   -0.8668153825    0.0000000000
N       -0.3741300518    0.3290537603    0.0000000000
H        0.6463923123    0.5377772820   -0.0000000000
3    
Image 5/21, Energy =   -93.3620909292 (+41.726 kcal/mol)
C       -0.1125615693   -0.7802826729    0.0000000000
N       -0.5148349434    0.3514794172    0.0000000000
H        0.6273971878    0.4288161405   -0.0000000000
3    
Image 6/21, Energy =   -93.3547535313 (+46.331 kcal/mol)
C       -0.0656702561   -0.7199636824    0.0000000000
N       -0.5891114877    0.3562754465    0.0000000000
H        0.6547698524    0.3637065173   -0.0000000000
3    
Image 7/21, Energy =   -93.3534818468 (+47.129 kcal/mol)
C       -0.0131684225   -0.5971984909    0.0000000000
N       -0.7527189106    0.3290928220    0.0000000000
H        0.7658673807    0.2681416228   -0.0000000000
3    
Image 8/21, Energy =   -93.3746873370 (+33.822 kcal/mol)
C        0.0082455101   -0.4740139101    0.0000000000
N       -0.8863775818    0.2869740503    0.0000000000
H        0.8781404441    0.1870738108   -0.0000000000
3    
Image 9/21, Energy =   -93.4044776279 (+15.128 kcal/mol)
C        0.0192565051   -0.3157012788   -0.0000000000
N       -1.0152001225    0.2185075413    0.0000000000
H        0.9959641591    0.0972372151   -0.0000000000
3    
Image 10/21, Energy =   -93.4212335695 (+4.614 kcal/mol)
C        0.0313389442   -0.1759754934   -0.0000000000
N       -1.0951640372    0.0819050327    0.0000000000
H        1.0638265459    0.0941098062   -0.0000000000
3    
Image 11/21, Energy =   -93.4268133619 (+1.112 kcal/mol)
C        0.0417261941   -0.0820703290    0.0000000000
N       -1.1171356053   -0.0961054778   -0.0000000000
H        1.0753946265    0.1782094124   -0.0000000000
3    
Image 12/21, Energy =   -93.4279452150 (+0.402 kcal/mol)
C        0.0410216533   -0.0440537263   -0.0000000000
N       -1.0998771999   -0.2431287350    0.0000000000
H        1.0588324226    0.2871953174   -0.0000000000
3    
Image 13/21, Energy =   -93.4283559662 (+0.144 kcal/mol)
C        0.0391365514   -0.0177489253   -0.0000000000
N       -1.0618327453   -0.3776352384   -0.0000000000
H        1.0226650054    0.3953801397   -0.0000000000
3    
Image 14/21, Energy =   -93.4285038314 (+0.052 kcal/mol)
C        0.0342679540    0.0018990158    0.0000000000
N       -0.9896450516   -0.5384911706    0.0000000000
H        0.9553687987    0.5365747438    0.0000000000
3    
Image 15/21, Energy =   -93.4285567065 (+0.019 kcal/mol)
C        0.0285308916    0.0126073208   -0.0000000000
N       -0.9094925539   -0.6659207261    0.0000000000
H        0.8809684141    0.6532879786   -0.0000000000
3    
Image 16/21, Energy =   -93.4285620341 (+0.015 kcal/mol)
C        0.0214971597    0.0208055606   -0.0000000000
N       -0.8265542054   -0.7648050772    0.0000000000
H        0.8050585554    0.7439831533   -0.0000000000
3    
Image 17/21, Energy =   -93.4285384754 (+0.030 kcal/mol)
C        0.0317548996    0.0054283078    0.0000000000
N       -0.9126183599   -0.6647679326    0.0000000000
H        0.8808751605    0.6593106543   -0.0000000000
3    
Image 18/21, Energy =   -93.4284397816 (+0.092 kcal/mol)
C        0.0371308649   -0.0070221535   -0.0000000000
N       -0.9791240220   -0.5633533365    0.0000000000
H        0.9419774783    0.5703573400    0.0000000000
3    
Image 19/21, Energy =   -93.4285601892 (+0.016 kcal/mol)
C        0.0267349989    0.0104789804   -0.0000000000
N       -0.8749186741   -0.7133537039   -0.0000000000
H        0.8481911770    0.7028504370    0.0000000000
3    
Image 20/21, Energy =   -93.4285861953 (+0.000 kcal/mol)
C        0.0194260556    0.0213642891    0.0000000000
N       -0.7589320377   -0.8347584640    0.0000000000
H        0.7395059821    0.8133941749    0.0000000000
