3    
Image 0/21, Energy =   -93.4051520129 (+14.705 kcal/mol)
C       -0.7519862184   -0.8272338399    0.0000000000
N        0.0394753354    0.0434721365    0.0000000000
H        0.7125108830    0.7837617034    0.0000000000
3    
Image 1/21, Energy =   -93.4024776358 (+16.383 kcal/mol)
C       -0.6785369184   -0.8611091256   -0.0000000000
N       -0.0814076699    0.1565068868    0.0000000000
H        0.7599456188    0.7046038779   -0.0000000000
3    
Image 2/21, Energy =   -93.3960648871 (+20.407 kcal/mol)
C       -0.5993179579   -0.8574261925   -0.0000000000
N       -0.1689178954    0.2481596033   -0.0000000000
H        0.7682344186    0.6092684840    0.0000000000
3    
Image 3/21, Energy =   -93.3867087065 (+26.279 kcal/mol)
C       -0.5109706998   -0.8361053980    0.0000000000
N       -0.2453776765    0.3282601254   -0.0000000000
H        0.7563462335    0.5078459011    0.0000000000
3    
Image 4/21, Energy =   -93.3774558678 (+32.085 kcal/mol)
C       -0.4189321811   -0.8151449429    0.0000000000
N       -0.3149477299    0.3846931449   -0.0000000000
H        0.7338780059    0.4304531836   -0.0000000000
3    
Image 5/21, Energy =   -93.3680961148 (+37.958 kcal/mol)
C       -0.3268969924   -0.7809198881    0.0000000000
N       -0.3906712459    0.4198209563    0.0000000000
H        0.7175681542    0.3611003812   -0.0000000000
3    
Image 6/21, Energy =   -93.3495285591 (+49.609 kcal/mol)
C       -0.2418194321   -0.7913344894   -0.0000000000
N       -0.5294704073    0.3742997342    0.0000000000
H        0.7712897252    0.4170365585   -0.0000000000
3    
Image 7/21, Energy =   -93.3277074336 (+63.302 kcal/mol)
C       -0.1815338457   -0.7815491433    0.0000000000
N       -0.6525102755    0.3231755242    0.0000000000
H        0.8340435569    0.4583756926    0.0000000000
3    
Image 8/21, Energy =   -93.3337590660 (+59.505 kcal/mol)
C       -0.1077241475   -0.7038550415    0.0000000000
N       -0.7229508062    0.3175412020   -0.0000000000
H        0.8306727965    0.3863164654   -0.0000000000
3    
Image 9/21, Energy =   -93.3527050260 (+47.616 kcal/mol)
C       -0.0414789491   -0.6025655410    0.0000000000
N       -0.7606997754    0.3389290344   -0.0000000000
H        0.8021788806    0.2636423540   -0.0000000000
3    
Image 10/21, Energy =   -93.3687934270 (+37.521 kcal/mol)
C        0.0300094952   -0.5010230651    0.0000000000
N       -0.8704164917    0.2527608029    0.0000000000
H        0.8404087888    0.2482666808    0.0000000000
3    
Image 11/21, Energy =   -93.3899843770 (+24.223 kcal/mol)
C        0.0816032178   -0.3873519673    0.0000000000
N       -0.9810694901    0.0871489480   -0.0000000000
H        0.8994709812    0.3002090030   -0.0000000000
3    
Image 12/21, Energy =   -93.4069261252 (+13.592 kcal/mol)
C        0.1128664252   -0.2764518015   -0.0000000000
N       -1.0361749651   -0.1297747455    0.0000000000
H        0.9233053203    0.4062328698   -0.0000000000
3    
Image 13/21, Energy =   -93.4165265299 (+7.568 kcal/mol)
C        0.1178760994   -0.1939363393   -0.0000000000
N       -1.0334940479   -0.3162974349    0.0000000000
H        0.9156141327    0.5102358562   -0.0000000000
3    
Image 14/21, Energy =   -93.4232559858 (+3.345 kcal/mol)
C        0.0998588629   -0.1172144876    0.0000000000
N       -0.9986727623   -0.4970282211   -0.0000000000
H        0.8988091457    0.6142426141    0.0000000000
3    
Image 15/21, Energy =   -93.4260893219 (+1.567 kcal/mol)
C        0.0789409578   -0.0664282444    0.0000000000
N       -0.9370866553   -0.6284024361    0.0000000000
H        0.8581459484    0.6948283707   -0.0000000000
3    
Image 16/21, Energy =   -93.4271056285 (+0.929 kcal/mol)
C        0.0438606994   -0.0180083612    0.0000000000
N       -0.8558188884   -0.7619936122    0.0000000000
H        0.8119587926    0.7800000981   -0.0000000000
3    
Image 17/21, Energy =   -93.4260562902 (+1.588 kcal/mol)
C        0.0878729928   -0.0604675546    0.0000000000
N       -0.9126276478   -0.6413956948    0.0000000000
H        0.8247559096    0.7018603943   -0.0000000000
3    
Image 18/21, Energy =   -93.4215434904 (+4.419 kcal/mol)
C        0.1233119676   -0.1200770191    0.0000000000
N       -0.9594619700   -0.5338788668    0.0000000000
H        0.8361449197    0.6539540474    0.0000000000
3    
Image 19/21, Energy =   -93.4268723763 (+1.075 kcal/mol)
C        0.0782200091   -0.0429208696   -0.0000000000
N       -0.8890485152   -0.6803491078    0.0000000000
H        0.8108301228    0.7232666682   -0.0000000000
3    
Image 20/21, Energy =   -93.4285861953 (+0.000 kcal/mol)
C        0.0194260556    0.0213642891    0.0000000000
N       -0.7589320377   -0.8347584640    0.0000000000
H        0.7395059821    0.8133941749    0.0000000000
