3    
Image 0/21, Energy =   -93.4051520129 (+14.705 kcal/mol)
C       -0.7519862184   -0.8272338399    0.0000000000
N        0.0394753354    0.0434721365    0.0000000000
H        0.7125108830    0.7837617034    0.0000000000
3    
Image 1/21, Energy =   -93.4021144936 (+16.611 kcal/mol)
C       -0.6723861037   -0.8600389986   -0.0000000000
N       -0.0874210616    0.1636563704    0.0000000000
H        0.7598101749    0.6963943481   -0.0000000000
3    
Image 2/21, Energy =   -93.3947274175 (+21.247 kcal/mol)
C       -0.5735867572   -0.8635602801    0.0000000000
N       -0.1861811272    0.2591894012   -0.0000000000
H        0.7597504037    0.6043818141    0.0000000000
3    
Image 3/21, Energy =   -93.3859413803 (+26.760 kcal/mol)
C       -0.4575200590   -0.8570521988    0.0000000000
N       -0.2673164628    0.3150157928   -0.0000000000
H        0.7248138087    0.5420469729    0.0000000000
3    
Image 4/21, Energy =   -93.3759243222 (+33.046 kcal/mol)
C       -0.2840448856   -0.8512909610    0.0000000000
N       -0.3704910384    0.3371359417    0.0000000000
H        0.6545353665    0.5141679169   -0.0000000000
3    
Image 5/21, Energy =   -93.3619740640 (+41.800 kcal/mol)
C       -0.0997637446   -0.7725785395    0.0000000000
N       -0.5048835880    0.3556626390    0.0000000000
H        0.6046455536    0.4169239929   -0.0000000000
3    
Image 6/21, Energy =   -93.3545083745 (+46.485 kcal/mol)
C       -0.0546562864   -0.7089214647    0.0000000000
N       -0.5841095950    0.3634185876    0.0000000000
H        0.6387576566    0.3455138361   -0.0000000000
3    
Image 7/21, Energy =   -93.3535637330 (+47.077 kcal/mol)
C       -0.0051416949   -0.5894543669    0.0000000000
N       -0.7507781325    0.3262377881    0.0000000000
H        0.7559073772    0.2632486716   -0.0000000000
3    
Image 8/21, Energy =   -93.3746667384 (+33.835 kcal/mol)
C        0.0050290759   -0.4696939235   -0.0000000000
N       -0.8809519634    0.2917848369    0.0000000000
H        0.8759397585    0.1779352290   -0.0000000000
3    
Image 9/21, Energy =   -93.4045292921 (+15.096 kcal/mol)
C        0.0195756289   -0.3130916305   -0.0000000000
N       -1.0139728037    0.2091959238    0.0000000000
H        0.9944258554    0.1039246413   -0.0000000000
3    
Image 10/21, Energy =   -93.4178355846 (+6.746 kcal/mol)
C        0.0420560185   -0.2106695614    0.0000000000
N       -1.0842602234    0.0592991758   -0.0000000000
H        1.0422098785    0.1514035675   -0.0000000000
3    
Image 11/21, Energy =   -93.4250017092 (+2.249 kcal/mol)
C        0.0469993702   -0.1184467257    0.0000000000
N       -1.1097511600   -0.1002211979   -0.0000000000
H        1.0627342330    0.2187063775   -0.0000000000
3    
Image 12/21, Energy =   -93.4267426613 (+1.157 kcal/mol)
C        0.0501711127   -0.0792734208   -0.0000000000
N       -1.0973597197   -0.2317974687   -0.0000000000
H        1.0471648049    0.3110913173   -0.0000000000
3    
Image 13/21, Energy =   -93.4279070848 (+0.426 kcal/mol)
C        0.0450157606   -0.0408931415   -0.0000000000
N       -1.0654280368   -0.3692772181   -0.0000000000
H        1.0203811652    0.4101729363   -0.0000000000
3    
Image 14/21, Energy =   -93.4283992007 (+0.117 kcal/mol)
C        0.0371573924   -0.0108035801    0.0000000000
N       -0.9953971977   -0.5349303226    0.0000000000
H        0.9582310334    0.5457219696    0.0000000000
3    
Image 15/21, Energy =   -93.4285419147 (+0.028 kcal/mol)
C        0.0295753757    0.0062777816   -0.0000000000
N       -0.9137449541   -0.6651241510    0.0000000000
H        0.8841768154    0.6588247287   -0.0000000000
3    
Image 16/21, Energy =   -93.4285728871 (+0.008 kcal/mol)
C        0.0192936413    0.0197928239   -0.0000000000
N       -0.8295565064   -0.7686278509    0.0000000000
H        0.8102666293    0.7488203356   -0.0000000000
3    
Image 17/21, Energy =   -93.4284335239 (+0.096 kcal/mol)
C        0.0384461157   -0.0036111151    0.0000000000
N       -0.9144995179   -0.6604272397    0.0000000000
H        0.8760646002    0.6640144339   -0.0000000000
3    
Image 18/21, Energy =   -93.4281403079 (+0.280 kcal/mol)
C        0.0472951105   -0.0229178038    0.0000000000
N       -0.9805671937   -0.5545818757    0.0000000000
H        0.9332537628    0.5774886235    0.0000000000
3    
Image 19/21, Energy =   -93.4285280202 (+0.037 kcal/mol)
C        0.0325694255    0.0062769652    0.0000000000
N       -0.8768932538   -0.7098912054   -0.0000000000
H        0.8443316441    0.7035937858    0.0000000000
3    
Image 20/21, Energy =   -93.4285861953 (+0.000 kcal/mol)
C        0.0194260556    0.0213642891    0.0000000000
N       -0.7589320377   -0.8347584640    0.0000000000
H        0.7395059821    0.8133941749    0.0000000000
