3    
Image 0/21, Energy =   -93.4051520129 (+14.706 kcal/mol)
C       -0.7519862184   -0.8272338399    0.0000000000
N        0.0394753354    0.0434721365    0.0000000000
H        0.7125108830    0.7837617034    0.0000000000
3    
Image 1/21, Energy =   -93.4020946980 (+16.624 kcal/mol)
C       -0.6716204055   -0.8606106679   -0.0000000000
N       -0.0879688507    0.1640677498    0.0000000000
H        0.7595914126    0.6965555361   -0.0000000000
3    
Image 2/21, Energy =   -93.3948012731 (+21.201 kcal/mol)
C       -0.5710310748   -0.8659679560    0.0000000000
N       -0.1866727335    0.2577330607   -0.0000000000
H        0.7576834809    0.6082468330    0.0000000000
3    
Image 3/21, Energy =   -93.3865627125 (+26.371 kcal/mol)
C       -0.4564618658   -0.8682649837    0.0000000000
N       -0.2636435077    0.3153991527    0.0000000000
H        0.7200827032    0.5528766025    0.0000000000
3    
Image 4/21, Energy =   -93.3760734870 (+32.953 kcal/mol)
C       -0.2782121559   -0.8605109224    0.0000000000
N       -0.3732859645    0.3418618704    0.0000000000
H        0.6514954727    0.5186626779   -0.0000000000
3    
Image 5/21, Energy =   -93.3621850422 (+41.668 kcal/mol)
C       -0.1045887727   -0.7777843636    0.0000000000
N       -0.5102806975    0.3555809130    0.0000000000
H        0.6148686879    0.4222124742   -0.0000000000
3    
Image 6/21, Energy =   -93.3547408137 (+46.339 kcal/mol)
C       -0.0586224959   -0.7137738785    0.0000000000
N       -0.5858259340    0.3616286195    0.0000000000
H        0.6444395892    0.3521580106   -0.0000000000
3    
Image 7/21, Energy =   -93.3535624834 (+47.079 kcal/mol)
C       -0.0070691718   -0.5946660524    0.0000000000
N       -0.7528750727    0.3288727634    0.0000000000
H        0.7599299247    0.2658262076   -0.0000000000
3    
Image 8/21, Energy =   -93.3746451532 (+33.849 kcal/mol)
C        0.0075729837   -0.4733292735   -0.0000000000
N       -0.8845537371    0.2924737939    0.0000000000
H        0.8769955963    0.1808835486   -0.0000000000
3    
Image 9/21, Energy =   -93.4045690861 (+15.071 kcal/mol)
C        0.0211797899   -0.3140472537   -0.0000000000
N       -1.0157928761    0.2124079755    0.0000000000
H        0.9946400055    0.1016717112   -0.0000000000
3    
Image 10/21, Energy =   -93.4188612276 (+6.103 kcal/mol)
C        0.0389360510   -0.2009561066   -0.0000000000
N       -1.0876981698    0.0632208110   -0.0000000000
H        1.0487666568    0.1377697407   -0.0000000000
3    
Image 11/21, Energy =   -93.4254666938 (+1.958 kcal/mol)
C        0.0468637277   -0.1097840669    0.0000000000
N       -1.1113586726   -0.0990019352   -0.0000000000
H        1.0644781298    0.2088234764   -0.0000000000
3    
Image 12/21, Energy =   -93.4270914199 (+0.938 kcal/mol)
C        0.0481620380   -0.0705913738   -0.0000000000
N       -1.0979758865   -0.2341654599    0.0000000000
H        1.0497902739    0.3047755547   -0.0000000000
3    
Image 13/21, Energy =   -93.4280531710 (+0.335 kcal/mol)
C        0.0440521991   -0.0347660230   -0.0000000000
N       -1.0638112262   -0.3711879207   -0.0000000000
H        1.0197279870    0.4059549965   -0.0000000000
3    
Image 14/21, Energy =   -93.4284497146 (+0.086 kcal/mol)
C        0.0373350848   -0.0070230005    0.0000000000
N       -0.9932626884   -0.5354024487    0.0000000000
H        0.9559189815    0.5424122157    0.0000000000
3    
Image 15/21, Energy =   -93.4285583383 (+0.018 kcal/mol)
C        0.0299730476    0.0083914053   -0.0000000000
N       -0.9122151959   -0.6648414627    0.0000000000
H        0.8822492839    0.6564275385   -0.0000000000
3    
Image 16/21, Energy =   -93.4285869629 (+0.000 kcal/mol)
C        0.0202222929    0.0203788812   -0.0000000000
N       -0.8280196709   -0.7668124274    0.0000000000
H        0.8078006337    0.7464184880   -0.0000000000
3    
Image 17/21, Energy =   -93.4284656144 (+0.076 kcal/mol)
C        0.0367647377   -0.0013610125    0.0000000000
N       -0.9141691307   -0.6615283184    0.0000000000
H        0.8774157361    0.6628642095   -0.0000000000
3    
Image 18/21, Energy =   -93.4282333564 (+0.222 kcal/mol)
C        0.0446880346   -0.0190039760   -0.0000000000
N       -0.9805731318   -0.5571715486    0.0000000000
H        0.9358674081    0.5761628053    0.0000000000
3    
Image 19/21, Energy =   -93.4285401461 (+0.029 kcal/mol)
C        0.0307480262    0.0070012527    0.0000000000
N       -0.8764754839   -0.7107811186   -0.0000000000
H        0.8457352194    0.7037585103    0.0000000000
3    
Image 20/21, Energy =   -93.4285861953 (+0.000 kcal/mol)
C        0.0194260556    0.0213642891    0.0000000000
N       -0.7589320377   -0.8347584640    0.0000000000
H        0.7395059821    0.8133941749    0.0000000000
