3    
Image 0/11, Energy =   -92.8148741520 (+8.372 kcal/mol)
C       -0.7423976055   -0.8166733316    0.0000000000
N        0.0415634250    0.0457411997    0.0000000000
H        0.7008341858    0.7709321319   -0.0000000000
3    
Image 1/11, Energy =   -92.8039492119 (+15.228 kcal/mol)
C       -0.6232522875   -0.8497153154    0.0000000000
N       -0.1302354806    0.2138623977    0.0000000000
H        0.7534877681    0.6358529177    0.0000000000
3    
Image 2/11, Energy =   -92.7723774664 (+35.039 kcal/mol)
C       -0.4541612555   -0.8121330955    0.0000000000
N       -0.2807809727    0.3676813838    0.0000000000
H        0.7349422282    0.4444517117    0.0000000000
3    
Image 3/11, Energy =   -92.7431517169 (+53.379 kcal/mol)
C       -0.2962730421   -0.7425599593    0.0000000000
N       -0.4104791831    0.4449113682    0.0000000000
H        0.7067522252    0.2976485914    0.0000000000
3    
Image 4/11, Energy =   -92.7236064005 (+65.643 kcal/mol)
C       -0.1092497147   -0.6380872944    0.0000000000
N       -0.6387949895    0.4243207148    0.0000000000
H        0.7480447042    0.2137665849    0.0000000000
3    
Image 5/11, Energy =   -92.7322982369 (+60.189 kcal/mol)
C        0.0223839770   -0.5610810004    0.0000000000
N       -0.8254709901    0.3068674418    0.0000000000
H        0.8030870181    0.2542135639    0.0000000000
3    
Image 6/11, Energy =   -92.7641142204 (+40.224 kcal/mol)
C        0.0802820916   -0.4238349880   -0.0000000000
N       -0.9409040202    0.1177236743    0.0000000000
H        0.8606219289    0.3061113140   -0.0000000000
3    
Image 7/11, Energy =   -92.7524402461 (+47.550 kcal/mol)
C        0.2159398688   -0.2620384776    0.0000000000
N       -1.0689447765   -0.2035679395   -0.0000000000
H        0.8530049128    0.4656064222   -0.0000000000
3    
Image 8/11, Energy =   -92.8207363267 (+4.693 kcal/mol)
C        0.1088093550   -0.1055790430    0.0000000000
N       -0.9493687362   -0.5302534921    0.0000000000
H        0.8405593864    0.6358325352   -0.0000000000
3    
Image 9/11, Energy =   -92.8239793630 (+2.658 kcal/mol)
C        0.0865257855   -0.0252629559    0.0000000000
N       -0.8719472778   -0.6936460449   -0.0000000000
H        0.7854214976    0.7189090008    0.0000000000
3    
Image 10/11, Energy =   -92.8282158336 (+0.000 kcal/mol)
C        0.0205094217    0.0225582742    0.0000000000
N       -0.7491564844   -0.8240073309    0.0000000000
H        0.7286470574    0.8014490567    0.0000000000
