3    
Image 0/11, Energy =   -92.8148741520 (+8.372 kcal/mol)
C       -0.7423976055   -0.8166733316    0.0000000000
N        0.0415634250    0.0457411997    0.0000000000
H        0.7008341858    0.7709321319   -0.0000000000
3    
Image 1/11, Energy =   -92.8049695793 (+14.587 kcal/mol)
C       -0.5886004460   -0.8802944352   -0.0000000000
N       -0.1322349006    0.2006569033    0.0000000000
H        0.7208353466    0.6796375372    0.0000000000
3    
Image 2/11, Energy =   -92.7751124081 (+33.323 kcal/mol)
C       -0.3786060247   -0.8614895156    0.0000000000
N       -0.3066115501    0.3268869231    0.0000000000
H        0.6852175748    0.5346025978   -0.0000000000
3    
Image 3/11, Energy =   -92.7466416438 (+51.189 kcal/mol)
C       -0.2399142210   -0.7818547883   -0.0000000000
N       -0.4340191721    0.3978043030    0.0000000000
H        0.6739333931    0.3840504907   -0.0000000000
3    
Image 4/11, Energy =   -92.7236064005 (+65.643 kcal/mol)
C       -0.1092497147   -0.6380872944    0.0000000000
N       -0.6387949895    0.4243207148    0.0000000000
H        0.7480447042    0.2137665849    0.0000000000
3    
Image 5/11, Energy =   -92.7588791521 (+43.509 kcal/mol)
C       -0.0467847490   -0.4485819134   -0.0000000000
N       -0.8515743979    0.3889997397    0.0000000000
H        0.8983591469    0.0595821790   -0.0000000000
3    
Image 6/11, Energy =   -92.8068089279 (+13.433 kcal/mol)
C       -0.0137933004   -0.2495026367    0.0000000000
N       -0.9997176512    0.3221552995   -0.0000000000
H        1.0135109541   -0.0726526575   -0.0000000000
3    
Image 7/11, Energy =   -92.8261445741 (+1.300 kcal/mol)
C        0.0312151077   -0.0795986192    0.0000000000
N       -1.1111885573    0.0350638928    0.0000000000
H        1.0799734504    0.0445347317    0.0000000000
3    
Image 8/11, Energy =   -92.8281613354 (+0.034 kcal/mol)
C        0.0253023588    0.0210500288   -0.0000000000
N       -1.0658816948   -0.3224213696   -0.0000000000
H        1.0405793360    0.3013713461    0.0000000000
3    
Image 9/11, Energy =   -92.8281814538 (+0.022 kcal/mol)
C        0.0217895406    0.0213335818    0.0000000000
N       -0.9769702079   -0.5329622554    0.0000000000
H        0.9551806725    0.5116286789   -0.0000000000
3    
Image 10/11, Energy =   -92.8282158336 (+0.000 kcal/mol)
C        0.0205094217    0.0225582742    0.0000000000
N       -0.7491564844   -0.8240073309    0.0000000000
H        0.7286470574    0.8014490567    0.0000000000
