3    
Image 0/11, Energy =   -92.8148741520 (+8.372 kcal/mol)
C       -0.7423976055   -0.8166733316    0.0000000000
N        0.0415634250    0.0457411997    0.0000000000
H        0.7008341858    0.7709321319   -0.0000000000
3    
Image 1/11, Energy =   -92.8039492119 (+15.228 kcal/mol)
C       -0.6232522875   -0.8497153154    0.0000000000
N       -0.1302354806    0.2138623977    0.0000000000
H        0.7534877681    0.6358529177    0.0000000000
3    
Image 2/11, Energy =   -92.7723614894 (+35.049 kcal/mol)
C       -0.4546325728   -0.8104930233    0.0000000000
N       -0.2808216562    0.3664951926    0.0000000000
H        0.7354542290    0.4439978307    0.0000000000
3    
Image 3/11, Energy =   -92.7429055324 (+53.533 kcal/mol)
C       -0.2982213151   -0.7413723194    0.0000000000
N       -0.4100145888    0.4483788148    0.0000000000
H        0.7082359039    0.2929935046    0.0000000000
3    
Image 4/11, Energy =   -92.7236064005 (+65.643 kcal/mol)
C       -0.1092497147   -0.6380872944    0.0000000000
N       -0.6387949895    0.4243207148    0.0000000000
H        0.7480447042    0.2137665849    0.0000000000
3    
Image 5/11, Energy =   -92.7255226943 (+64.441 kcal/mol)
C       -0.0117138509   -0.5346158297    0.0000000000
N       -0.7874464456    0.2691298826    0.0000000000
H        0.7991603018    0.2654859524    0.0000000000
3    
Image 6/11, Energy =   -92.7618714428 (+41.632 kcal/mol)
C        0.0858220077   -0.4311443650    0.0000000000
N       -0.9360979070    0.1139390503    0.0000000000
H        0.8502758993    0.3172053147    0.0000000000
3    
Image 7/11, Energy =   -92.7577237612 (+44.234 kcal/mol)
C        0.0998600790   -0.2704689496    0.0000000000
N       -0.9416378156   -0.2081755154    0.0000000000
H        0.8417777419    0.4786444703    0.0000000000
3    
Image 8/11, Energy =   -92.8200279347 (+5.138 kcal/mol)
C        0.1138981449   -0.1097935343    0.0000000000
N       -0.9471777242   -0.5302900865    0.0000000000
H        0.8332795845    0.6400836207    0.0000000000
3    
Image 9/11, Energy =   -92.8236314623 (+2.877 kcal/mol)
C        0.0675106241   -0.0433370682    0.0000000000
N       -0.8488038394   -0.6777269221    0.0000000000
H        0.7812932206    0.7210639903    0.0000000000
3    
Image 10/11, Energy =   -92.8282158336 (+0.000 kcal/mol)
C        0.0205094217    0.0225582742    0.0000000000
N       -0.7491564844   -0.8240073309    0.0000000000
H        0.7286470574    0.8014490567    0.0000000000
