3    
Image 0/11, Energy =   -92.8148741520 (+8.372 kcal/mol)
C       -0.7423976055   -0.8166733316    0.0000000000
N        0.0415634250    0.0457411997    0.0000000000
H        0.7008341858    0.7709321319   -0.0000000000
3    
Image 1/11, Energy =   -92.8051696556 (+14.462 kcal/mol)
C       -0.5824888935   -0.8846648804   -0.0000000000
N       -0.1326055327    0.1975064747    0.0000000000
H        0.7150944262    0.6871584110   -0.0000000000
3    
Image 2/11, Energy =   -92.7751368546 (+33.308 kcal/mol)
C       -0.3765435689   -0.8626182399    0.0000000000
N       -0.3072789551    0.3261878648    0.0000000000
H        0.6838225240    0.5364303804   -0.0000000000
3    
Image 3/11, Energy =   -92.7466283024 (+51.197 kcal/mol)
C       -0.2407298483   -0.7811079825   -0.0000000000
N       -0.4335557329    0.3977645964    0.0000000000
H        0.6742855812    0.3833433914   -0.0000000000
3    
Image 4/11, Energy =   -92.7236064005 (+65.643 kcal/mol)
C       -0.1092497147   -0.6380872944    0.0000000000
N       -0.6387949895    0.4243207148    0.0000000000
H        0.7480447042    0.2137665849    0.0000000000
3    
Image 5/11, Energy =   -92.7589143082 (+43.487 kcal/mol)
C       -0.0458642059   -0.4480875018   -0.0000000000
N       -0.8524874339    0.3854991688    0.0000000000
H        0.8983516397    0.0625883382   -0.0000000000
3    
Image 6/11, Energy =   -92.8069801215 (+13.326 kcal/mol)
C       -0.0114863335   -0.2493906323    0.0000000000
N       -1.0013019907    0.3222394853   -0.0000000000
H        1.0127883258   -0.0728488477   -0.0000000000
3    
Image 7/11, Energy =   -92.8271405763 (+0.675 kcal/mol)
C        0.0295485831   -0.0577803152    0.0000000000
N       -1.1098674669    0.0332122881    0.0000000000
H        1.0803188846    0.0245680324    0.0000000000
3    
Image 8/11, Energy =   -92.8281928067 (+0.014 kcal/mol)
C        0.0265549263    0.0164175993   -0.0000000000
N       -1.0659315260   -0.3209204213   -0.0000000000
H        1.0393765998    0.3045028273    0.0000000000
3    
Image 9/11, Energy =   -92.8282072458 (+0.005 kcal/mol)
C        0.0245567300    0.0190307051    0.0000000000
N       -0.9785551176   -0.5320061658    0.0000000000
H        0.9539983928    0.5129754660   -0.0000000000
3    
Image 10/11, Energy =   -92.8282158336 (+0.000 kcal/mol)
C        0.0205094217    0.0225582742    0.0000000000
N       -0.7491564844   -0.8240073309    0.0000000000
H        0.7286470574    0.8014490567    0.0000000000
