3    
Image 0/11, Energy =   -92.8148741520 (+8.372 kcal/mol)
C       -0.7423976055   -0.8166733316    0.0000000000
N        0.0415634250    0.0457411997    0.0000000000
H        0.7008341858    0.7709321319   -0.0000000000
3    
Image 1/11, Energy =   -92.8042466111 (+15.041 kcal/mol)
C       -0.6071011993   -0.8633551443    0.0000000000
N       -0.1327855189    0.2090988468    0.0000000000
H        0.7398867183    0.6542562985    0.0000000000
3    
Image 2/11, Energy =   -92.7746552555 (+33.610 kcal/mol)
C       -0.3955758906   -0.8519375321    0.0000000000
N       -0.3014227774    0.3351193234    0.0000000000
H        0.6969986680    0.5168182128    0.0000000000
3    
Image 3/11, Energy =   -92.7466568007 (+51.179 kcal/mol)
C       -0.2394954151   -0.7819777997    0.0000000000
N       -0.4342383933    0.3973133048    0.0000000000
H        0.6737338084    0.3846645005    0.0000000000
3    
Image 4/11, Energy =   -92.7236064005 (+65.643 kcal/mol)
C       -0.1092497147   -0.6380872944    0.0000000000
N       -0.6387949895    0.4243207148    0.0000000000
H        0.7480447042    0.2137665849    0.0000000000
3    
Image 5/11, Energy =   -92.7581394720 (+43.974 kcal/mol)
C       -0.0525920977   -0.4496785791   -0.0000000000
N       -0.8440376159    0.3981077100   -0.0000000000
H        0.8966297127    0.0515708744   -0.0000000000
3    
Image 6/11, Energy =   -92.8055610425 (+14.216 kcal/mol)
C       -0.0101457080   -0.2567264636    0.0000000000
N       -1.0008974872    0.3086288560    0.0000000000
H        1.0110431967   -0.0519023860   -0.0000000000
3    
Image 7/11, Energy =   -92.8281083229 (+0.067 kcal/mol)
C        0.0240368274    0.0237807860    0.0000000000
N       -1.0703754566   -0.3162390417   -0.0000000000
H        1.0463386335    0.2924582600    0.0000000000
3    
Image 8/11, Energy =   -92.8281134846 (+0.064 kcal/mol)
C        0.0185884345    0.0302422324    0.0000000000
N       -0.9753814079   -0.5378912511   -0.0000000000
H        0.9567929787    0.5076490206   -0.0000000000
3    
Image 9/11, Energy =   -92.8281700034 (+0.029 kcal/mol)
C        0.0155289401    0.0289606317    0.0000000000
N       -0.8419120264   -0.7283288887   -0.0000000000
H        0.8263830913    0.6993682571    0.0000000000
3    
Image 10/11, Energy =   -92.8282158336 (+0.000 kcal/mol)
C        0.0205094217    0.0225582742    0.0000000000
N       -0.7491564844   -0.8240073309    0.0000000000
H        0.7286470574    0.8014490567    0.0000000000
