3    
Image 0/11, Energy =   -92.8148741520 (+8.372 kcal/mol)
C       -0.7423976055   -0.8166733316    0.0000000000
N        0.0415634250    0.0457411997    0.0000000000
H        0.7008341858    0.7709321319   -0.0000000000
3    
Image 1/11, Energy =   -92.8053197919 (+14.367 kcal/mol)
C       -0.5774518660   -0.8884325419   -0.0000000000
N       -0.1328243680    0.1952255639    0.0000000000
H        0.7102762340    0.6932069832   -0.0000000000
3    
Image 2/11, Energy =   -92.7751543094 (+33.297 kcal/mol)
C       -0.3751585231   -0.8632083646    0.0000000000
N       -0.3077332521    0.3255291629    0.0000000000
H        0.6828917753    0.5376792070   -0.0000000000
3    
Image 3/11, Energy =   -92.7466136067 (+51.206 kcal/mol)
C       -0.2411517519   -0.7812942278   -0.0000000000
N       -0.4334536770    0.3985743883    0.0000000000
H        0.6746054289    0.3827198448   -0.0000000000
3    
Image 4/11, Energy =   -92.7236064005 (+65.643 kcal/mol)
C       -0.1092497147   -0.6380872944    0.0000000000
N       -0.6387949895    0.4243207148    0.0000000000
H        0.7480447042    0.2137665849    0.0000000000
3    
Image 5/11, Energy =   -92.7589333071 (+43.475 kcal/mol)
C       -0.0446464737   -0.4482883808    0.0000000000
N       -0.8536330697    0.3835105061    0.0000000000
H        0.8982795435    0.0647778800    0.0000000000
3    
Image 6/11, Energy =   -92.8070267220 (+13.296 kcal/mol)
C       -0.0100139976   -0.2494698098   -0.0000000000
N       -1.0024738146    0.3214693039   -0.0000000000
H        1.0124878131   -0.0719994888   -0.0000000000
3    
Image 7/11, Energy =   -92.8276092879 (+0.381 kcal/mol)
C        0.0296381958   -0.0436021376    0.0000000000
N       -1.1105734402    0.0348932083    0.0000000000
H        1.0809352453    0.0087089346    0.0000000000
3    
Image 8/11, Energy =   -92.8282045859 (+0.007 kcal/mol)
C        0.0284657983    0.0134850824   -0.0000000000
N       -1.0670498388   -0.3202635292   -0.0000000000
H        1.0385840405    0.3067784521    0.0000000000
3    
Image 9/11, Energy =   -92.8282117576 (+0.003 kcal/mol)
C        0.0251632986    0.0166692078    0.0000000000
N       -0.9785777286   -0.5308645624    0.0000000000
H        0.9534144352    0.5141953599   -0.0000000000
3    
Image 10/11, Energy =   -92.8282158336 (+0.000 kcal/mol)
C        0.0205094217    0.0225582742    0.0000000000
N       -0.7491564844   -0.8240073309    0.0000000000
H        0.7286470574    0.8014490567    0.0000000000
