3    
Image 0/11, Energy =   -92.8148741520 (+8.372 kcal/mol)
C       -0.7423976055   -0.8166733316    0.0000000000
N        0.0415634250    0.0457411997    0.0000000000
H        0.7008341858    0.7709321319   -0.0000000000
3    
Image 1/11, Energy =   -92.8039492119 (+15.228 kcal/mol)
C       -0.6232522875   -0.8497153154    0.0000000000
N       -0.1302354806    0.2138623977    0.0000000000
H        0.7534877681    0.6358529177    0.0000000000
3    
Image 2/11, Energy =   -92.7723366510 (+35.065 kcal/mol)
C       -0.4528250415   -0.8125909320    0.0000000000
N       -0.2814644476    0.3673330915    0.0000000000
H        0.7342894891    0.4452578405    0.0000000000
3    
Image 3/11, Energy =   -92.7435438019 (+53.133 kcal/mol)
C       -0.2933516741   -0.7457594966    0.0000000000
N       -0.4114101070    0.4411524691    0.0000000000
H        0.7047617811    0.3046070281    0.0000000000
3    
Image 4/11, Energy =   -92.7236064005 (+65.643 kcal/mol)
C       -0.1092497147   -0.6380872944    0.0000000000
N       -0.6387949895    0.4243207148    0.0000000000
H        0.7480447042    0.2137665849    0.0000000000
3    
Image 5/11, Energy =   -92.7360722542 (+57.821 kcal/mol)
C        0.0189414003   -0.5449561235    0.0000000000
N       -0.8311850725    0.3016633424    0.0000000000
H        0.8122436770    0.2432927864    0.0000000000
3    
Image 6/11, Energy =   -92.7675733012 (+38.054 kcal/mol)
C        0.0749952139   -0.4143087722   -0.0000000000
N       -0.9512934874    0.1257138072    0.0000000000
H        0.8762982741    0.2885949656   -0.0000000000
3    
Image 7/11, Energy =   -92.7949155008 (+20.896 kcal/mol)
C        0.1570789254   -0.2515023624    0.0000000000
N       -1.0465547057   -0.2463255768   -0.0000000000
H        0.8894757857    0.4978279443   -0.0000000000
3    
Image 8/11, Energy =   -92.8210429590 (+4.501 kcal/mol)
C        0.1087520078   -0.1031998401   -0.0000000000
N       -0.9599647443   -0.5203656040   -0.0000000000
H        0.8512127417    0.6235654445   -0.0000000000
3    
Image 9/11, Energy =   -92.8266597405 (+0.976 kcal/mol)
C        0.0647126010   -0.0317165466    0.0000000000
N       -0.8597397692   -0.6944638814   -0.0000000000
H        0.7950271734    0.7261804281    0.0000000000
3    
Image 10/11, Energy =   -92.8282158336 (+0.000 kcal/mol)
C        0.0205094217    0.0225582742    0.0000000000
N       -0.7491564844   -0.8240073309    0.0000000000
H        0.7286470574    0.8014490567    0.0000000000
