3    
Image 0/11, Energy =   -92.8148741520 (+8.372 kcal/mol)
C       -0.7423976055   -0.8166733316    0.0000000000
N        0.0415634250    0.0457411997    0.0000000000
H        0.7008341858    0.7709321319   -0.0000000000
3    
Image 1/11, Energy =   -92.8055500418 (+14.223 kcal/mol)
C       -0.5688474828   -0.8952568259   -0.0000000000
N       -0.1329386209    0.1921575821    0.0000000000
H        0.7017861037    0.7030992492   -0.0000000000
3    
Image 2/11, Energy =   -92.7751543094 (+33.297 kcal/mol)
C       -0.3751585231   -0.8632083646    0.0000000000
N       -0.3077332521    0.3255291629    0.0000000000
H        0.6828917753    0.5376792070   -0.0000000000
3    
Image 3/11, Energy =   -92.7465882104 (+51.222 kcal/mol)
C       -0.2420712505   -0.7802480155    0.0000000000
N       -0.4329409219    0.3983336037    0.0000000000
H        0.6750121724    0.3819144171   -0.0000000000
3    
Image 4/11, Energy =   -92.7236064005 (+65.643 kcal/mol)
C       -0.1092497147   -0.6380872944    0.0000000000
N       -0.6387949895    0.4243207148    0.0000000000
H        0.7480447042    0.2137665849    0.0000000000
3    
Image 5/11, Energy =   -92.7589623623 (+43.457 kcal/mol)
C       -0.0435420262   -0.4480554836    0.0000000000
N       -0.8547273497    0.3803410237    0.0000000000
H        0.8982693759    0.0677144652    0.0000000000
3    
Image 6/11, Energy =   -92.8070922975 (+13.255 kcal/mol)
C       -0.0097611084   -0.2488948273   -0.0000000000
N       -1.0031644366    0.3182783716    0.0000000000
H        1.0129255450   -0.0693835390   -0.0000000000
3    
Image 7/11, Energy =   -92.8280433550 (+0.108 kcal/mol)
C        0.0301234093   -0.0238394061    0.0000000000
N       -1.1119548567    0.0386884153    0.0000000000
H        1.0818314484   -0.0148490039    0.0000000000
3    
Image 8/11, Energy =   -92.8282158032 (+0.000 kcal/mol)
C        0.0291352301    0.0090185406   -0.0000000000
N       -1.0669747657   -0.3190479322   -0.0000000000
H        1.0378395356    0.3100293969    0.0000000000
3    
Image 9/11, Energy =   -92.8282157715 (+0.000 kcal/mol)
C        0.0269572129    0.0141826930    0.0000000000
N       -0.9793999954   -0.5299405470    0.0000000000
H        0.9524427876    0.5157578592   -0.0000000000
3    
Image 10/11, Energy =   -92.8282158336 (+0.000 kcal/mol)
C        0.0205094217    0.0225582742    0.0000000000
N       -0.7491564844   -0.8240073309    0.0000000000
H        0.7286470574    0.8014490567    0.0000000000
