3    
Image 0/11, Energy =   -92.8148741520 (+8.372 kcal/mol)
C       -0.7423976055   -0.8166733316    0.0000000000
N        0.0415634250    0.0457411997    0.0000000000
H        0.7008341858    0.7709321319   -0.0000000000
3    
Image 1/11, Energy =   -92.8039511660 (+15.226 kcal/mol)
C       -0.6219556723   -0.8508008218    0.0000000000
N       -0.1305795823    0.2137200561    0.0000000000
H        0.7525352546    0.6370807658    0.0000000000
3    
Image 2/11, Energy =   -92.7727182760 (+34.825 kcal/mol)
C       -0.4384099134   -0.8219572279    0.0000000000
N       -0.2874927676    0.3600029704    0.0000000000
H        0.7259026810    0.4619542584    0.0000000000
3    
Image 3/11, Energy =   -92.7452415279 (+52.067 kcal/mol)
C       -0.2716392900   -0.7637240929    0.0000000000
N       -0.4209822071    0.4208192923    0.0000000000
H        0.6926214971    0.3429048034    0.0000000000
3    
Image 4/11, Energy =   -92.7236064005 (+65.643 kcal/mol)
C       -0.1092497147   -0.6380872944    0.0000000000
N       -0.6387949895    0.4243207148    0.0000000000
H        0.7480447042    0.2137665849    0.0000000000
3    
Image 5/11, Energy =   -92.7478225850 (+50.448 kcal/mol)
C       -0.0169453386   -0.4944137172    0.0000000000
N       -0.8444757800    0.3368022626    0.0000000000
H        0.8614211208    0.1576114599   -0.0000000000
3    
Image 6/11, Energy =   -92.7850401655 (+27.093 kcal/mol)
C        0.0321700588   -0.3525437920   -0.0000000000
N       -0.9821851355    0.1893521839    0.0000000000
H        0.9500150796    0.1631916120    0.0000000000
3    
Image 7/11, Energy =   -92.8211184560 (+4.454 kcal/mol)
C        0.0801447084   -0.1263939980    0.0000000000
N       -1.0513066178   -0.2925554386   -0.0000000000
H        0.9711619143    0.4189494412   -0.0000000000
3    
Image 8/11, Energy =   -92.8261894867 (+1.272 kcal/mol)
C        0.0666114114   -0.0530447936    0.0000000000
N       -0.9786273614   -0.5201093236   -0.0000000000
H        0.9120159553    0.5731541185   -0.0000000000
3    
Image 9/11, Energy =   -92.8279719414 (+0.153 kcal/mol)
C        0.0405935679    0.0018133086    0.0000000000
N       -0.8550834563   -0.7166572505   -0.0000000000
H        0.8144898935    0.7148439418    0.0000000000
3    
Image 10/11, Energy =   -92.8282158336 (+0.000 kcal/mol)
C        0.0205094217    0.0225582742    0.0000000000
N       -0.7491564844   -0.8240073309    0.0000000000
H        0.7286470574    0.8014490567    0.0000000000
