3    
Image 0/11, Energy =   -92.8148741520 (+8.372 kcal/mol)
C       -0.7423976055   -0.8166733316    0.0000000000
N        0.0415634250    0.0457411997    0.0000000000
H        0.7008341858    0.7709321319   -0.0000000000
3    
Image 1/11, Energy =   -92.8039492119 (+15.228 kcal/mol)
C       -0.6232522875   -0.8497153154    0.0000000000
N       -0.1302354806    0.2138623977    0.0000000000
H        0.7534877681    0.6358529177    0.0000000000
3    
Image 2/11, Energy =   -92.7723473289 (+35.058 kcal/mol)
C       -0.4512136297   -0.8131113591    0.0000000000
N       -0.2822519786    0.3662761837    0.0000000000
H        0.7334656083    0.4468351755    0.0000000000
3    
Image 3/11, Energy =   -92.7438792581 (+52.922 kcal/mol)
C       -0.2899343366   -0.7493717131    0.0000000000
N       -0.4128754390    0.4381217467    0.0000000000
H        0.7028097756    0.3112499673    0.0000000000
3    
Image 4/11, Energy =   -92.7236064005 (+65.643 kcal/mol)
C       -0.1092497147   -0.6380872944    0.0000000000
N       -0.6387949895    0.4243207148    0.0000000000
H        0.7480447042    0.2137665849    0.0000000000
3    
Image 5/11, Energy =   -92.7396200992 (+55.595 kcal/mol)
C        0.0045838945   -0.5229023964    0.0000000000
N       -0.8269984178    0.2914942023    0.0000000000
H        0.8224145278    0.2314081994    0.0000000000
3    
Image 6/11, Energy =   -92.7704191943 (+36.268 kcal/mol)
C        0.0655061174   -0.4037479254   -0.0000000000
N       -0.9548118315    0.1330034808    0.0000000000
H        0.8893057152    0.2707444458   -0.0000000000
3    
Image 7/11, Energy =   -92.8054125136 (+14.309 kcal/mol)
C        0.1115921393   -0.2284850421    0.0000000000
N       -1.0173238657   -0.2672187958   -0.0000000000
H        0.9057317318    0.4957038430   -0.0000000000
3    
Image 8/11, Energy =   -92.8217374575 (+4.065 kcal/mol)
C        0.0969877601   -0.1009598053   -0.0000000000
N       -0.9604377572   -0.5152109564   -0.0000000000
H        0.8634500023    0.6161707623   -0.0000000000
3    
Image 9/11, Energy =   -92.8259296401 (+1.435 kcal/mol)
C        0.0713036023   -0.0194400034    0.0000000000
N       -0.8703456860   -0.7025631308   -0.0000000000
H        0.7990420888    0.7220031342    0.0000000000
3    
Image 10/11, Energy =   -92.8282158336 (+0.000 kcal/mol)
C        0.0205094217    0.0225582742    0.0000000000
N       -0.7491564844   -0.8240073309    0.0000000000
H        0.7286470574    0.8014490567    0.0000000000
