3    
Image 0/11, Energy =   -92.8148741520 (+8.372 kcal/mol)
C       -0.7423976055   -0.8166733316    0.0000000000
N        0.0415634250    0.0457411997    0.0000000000
H        0.7008341858    0.7709321319   -0.0000000000
3    
Image 1/11, Energy =   -92.8047944446 (+14.697 kcal/mol)
C       -0.5931556588   -0.8750094522   -0.0000000000
N       -0.1330275262    0.2016387801    0.0000000000
H        0.7261831850    0.6733706774    0.0000000000
3    
Image 2/11, Energy =   -92.7750873151 (+33.339 kcal/mol)
C       -0.3810554426   -0.8604525382    0.0000000000
N       -0.3057508374    0.3280361381    0.0000000000
H        0.6868062800    0.5324164054   -0.0000000000
3    
Image 3/11, Energy =   -92.7466597823 (+51.177 kcal/mol)
C       -0.2393193654   -0.7816150858   -0.0000000000
N       -0.4341254515    0.3967911453    0.0000000000
H        0.6734448169    0.3848239458   -0.0000000000
3    
Image 4/11, Energy =   -92.7236064005 (+65.643 kcal/mol)
C       -0.1092497147   -0.6380872944    0.0000000000
N       -0.6387949895    0.4243207148    0.0000000000
H        0.7480447042    0.2137665849    0.0000000000
3    
Image 5/11, Energy =   -92.7588328276 (+43.538 kcal/mol)
C       -0.0494083990   -0.4476778190   -0.0000000000
N       -0.8491689292    0.3912480576    0.0000000000
H        0.8985773282    0.0564297668   -0.0000000000
3    
Image 6/11, Energy =   -92.8067818533 (+13.450 kcal/mol)
C       -0.0106084086   -0.2514138199    0.0000000000
N       -1.0020217515    0.3233044049   -0.0000000000
H        1.0126301635   -0.0718905797    0.0000000000
3    
Image 7/11, Energy =   -92.8249356049 (+2.058 kcal/mol)
C        0.0346606621   -0.0996084562    0.0000000000
N       -1.1062760446    0.0348363141    0.0000000000
H        1.0716153832    0.0647721474   -0.0000000000
3    
Image 8/11, Energy =   -92.8281161720 (+0.063 kcal/mol)
C        0.0240660355    0.0254097227   -0.0000000000
N       -1.0659589999   -0.3229306804   -0.0000000000
H        1.0418929644    0.2975209630    0.0000000000
3    
Image 9/11, Energy =   -92.8281678454 (+0.030 kcal/mol)
C        0.0214083763    0.0252584376    0.0000000000
N       -0.9770368504   -0.5349525532    0.0000000000
H        0.9556284793    0.5096941209   -0.0000000000
3    
Image 10/11, Energy =   -92.8282158336 (+0.000 kcal/mol)
C        0.0205094217    0.0225582742    0.0000000000
N       -0.7491564844   -0.8240073309    0.0000000000
H        0.7286470574    0.8014490567    0.0000000000
