3    
Image 0/11, Energy =   -92.8148741520 (+8.372 kcal/mol)
C       -0.7423976055   -0.8166733316    0.0000000000
N        0.0415634250    0.0457411997    0.0000000000
H        0.7008341858    0.7709321319   -0.0000000000
3    
Image 1/11, Energy =   -92.8046837968 (+14.767 kcal/mol)
C       -0.5958092353   -0.8725915244   -0.0000000000
N       -0.1331498502    0.2029148136    0.0000000000
H        0.7289590854    0.6696767161    0.0000000000
3    
Image 2/11, Energy =   -92.7750736489 (+33.347 kcal/mol)
C       -0.3826156935   -0.8596730496    0.0000000000
N       -0.3051888012    0.3286283324    0.0000000000
H        0.6878044947    0.5310447226   -0.0000000000
3    
Image 3/11, Energy =   -92.7466709511 (+51.170 kcal/mol)
C       -0.2388411263   -0.7819084315   -0.0000000000
N       -0.4342937340    0.3966906268    0.0000000000
H        0.6731348603    0.3852178100   -0.0000000000
3    
Image 4/11, Energy =   -92.7236064005 (+65.643 kcal/mol)
C       -0.1092497147   -0.6380872944    0.0000000000
N       -0.6387949895    0.4243207148    0.0000000000
H        0.7480447042    0.2137665849    0.0000000000
3    
Image 5/11, Energy =   -92.7587872153 (+43.567 kcal/mol)
C       -0.0503615903   -0.4477350111   -0.0000000000
N       -0.8481581149    0.3932107066    0.0000000000
H        0.8985197053    0.0545243097   -0.0000000000
3    
Image 6/11, Energy =   -92.8062655634 (+13.774 kcal/mol)
C       -0.0049807171   -0.2537956242    0.0000000000
N       -1.0050721173    0.3253205199   -0.0000000000
H        1.0100528384   -0.0715248904    0.0000000000
3    
Image 7/11, Energy =   -92.8241265728 (+2.566 kcal/mol)
C        0.0375442081   -0.1095756367    0.0000000000
N       -1.1005242975    0.0323135662    0.0000000000
H        1.0629800899    0.0772620758   -0.0000000000
3    
Image 8/11, Energy =   -92.8280824711 (+0.084 kcal/mol)
C        0.0228610560    0.0276360983   -0.0000000000
N       -1.0654720609   -0.3225433398   -0.0000000000
H        1.0426110049    0.2949072468    0.0000000000
3    
Image 9/11, Energy =   -92.8280484363 (+0.105 kcal/mol)
C        0.0229258973    0.0286353337    0.0000000000
N       -0.9782684242   -0.5368678729    0.0000000000
H        0.9553425323    0.5082325445   -0.0000000000
3    
Image 10/11, Energy =   -92.8282158336 (+0.000 kcal/mol)
C        0.0205094217    0.0225582742    0.0000000000
N       -0.7491564844   -0.8240073309    0.0000000000
H        0.7286470574    0.8014490567    0.0000000000
