3    
Iteration 0 Energy -93.34286646
C       -0.0256470082   -0.6477184393    0.0000000000
N       -0.6795216459    0.3478247087   -0.0000000000
H        0.7051185044    0.2999670444   -0.0000000000
3    
Iteration 1 Energy -93.34287076
C       -0.0244071150   -0.6473825894   -0.0000000000
N       -0.6788207734    0.3485007559   -0.0000000000
H        0.7031947064    0.2990128845   -0.0000000000
3    
Iteration 2 Energy -93.34287182
C       -0.0243367096   -0.6468845148   -0.0000000000
N       -0.6798236812    0.3483493425   -0.0000000000
H        0.7041450512    0.2987246734   -0.0000000000
3    
Iteration 3 Energy -93.34287653
C       -0.0241800845   -0.6457618642   -0.0000000000
N       -0.6818329155    0.3479617413   -0.0000000000
H        0.7060165544    0.2980481627   -0.0000000000
3    
Iteration 4 Energy -93.34289824
C       -0.0236586325   -0.6433562383    0.0000000000
N       -0.6859397764    0.3472180681    0.0000000000
H        0.7096216477    0.2964435874   -0.0000000000
3    
Iteration 5 Energy -93.34299975
C       -0.0225904110   -0.6381722173    0.0000000000
N       -0.6947990950    0.3455439637    0.0000000000
H        0.7174306829    0.2929871072    0.0000000000
3    
Iteration 6 Energy -93.34348265
C       -0.0203778131   -0.6267819015    0.0000000000
N       -0.7138708437    0.3417249070    0.0000000000
H        0.7342861402    0.2854565920    0.0000000000
3    
Iteration 7 Energy -93.34577260
C       -0.0159477863   -0.6011534734   -0.0000000000
N       -0.7545860544    0.3326508048    0.0000000000
H        0.7704720822    0.2689328738   -0.0000000000
3    
Iteration 8 Energy -93.35520726
C       -0.0076745690   -0.5433504032   -0.0000000000
N       -0.8353372494    0.3106619194    0.0000000000
H        0.8428666276    0.2332304366   -0.0000000000
3    
Iteration 9 Energy -93.37860018
C        0.0050792543   -0.4303875740   -0.0000000000
N       -0.9556624029    0.2641894792    0.0000000000
H        0.9504968343    0.1668690310   -0.0000000000
3    
Iteration 10 Energy -93.40254109
C        0.0172015036   -0.2900534993    0.0000000000
N       -1.0511572684    0.2019278387    0.0000000000
H        1.0341318121    0.0888845276   -0.0000000000
3    
Iteration 11 Energy -93.36658978
C        0.0330938882    0.1269877354   -0.0000000000
N       -1.2734959004    0.0013419451   -0.0000000000
H        1.2407178650   -0.1268346025   -0.0000000000
3    
Iteration 12 Energy -93.41668152
C        0.0479932605    0.0830610094   -0.0000000000
N       -1.1527545767    0.0147608819    0.0000000000
H        1.1050690821   -0.0963419664   -0.0000000000
3    
Iteration 13 Energy -93.41997153
C        0.0252428680    0.0352095727   -0.0000000000
N       -1.1023097827    0.0374806221    0.0000000000
H        1.0773351062   -0.0711613439   -0.0000000000
3    
Iteration 14 Energy -93.42231853
C        0.0305591388    0.0314827565    0.0000000000
N       -1.1288196788    0.0400997825   -0.0000000000
H        1.0985024315   -0.0700182412   -0.0000000000
3    
Iteration 15 Energy -93.42251759
C        0.0300885362    0.0159784471    0.0000000000
N       -1.1270433162    0.0475355958   -0.0000000000
H        1.0971735352   -0.0618818151   -0.0000000000
3    
Iteration 16 Energy -93.42258668
C        0.0284991808   -0.0008807302    0.0000000000
N       -1.1267009760    0.0558162963   -0.0000000000
H        1.0983636634   -0.0532109889   -0.0000000000
3    
Iteration 17 Energy -93.42258751
C        0.0289929093   -0.0009144180    0.0000000000
N       -1.1266865541    0.0557812557   -0.0000000000
H        1.0978230874   -0.0531403032   -0.0000000000
