6    
Image 0/11, Energy =  -169.0522692291 (+0.375 kcal/mol)
C       -0.3689809232   -1.4576547332   -1.3858823910
C       -0.1536196575   -0.5941379364   -0.5627748996
H        0.0498937432    0.2058682499    0.1931202386
H       -0.5557149982   -2.2230003307   -2.1042277546
C        0.4068909404    1.6172446315    1.5286738868
N        0.6215308952    2.4516801189    2.3310909145
6    
Image 1/11, Energy =  -169.0528662057 (+0.000 kcal/mol)
C       -0.3434199789   -1.4587224214   -1.3583666394
C       -0.2651761167   -0.5241842017   -0.6113047105
H       -0.1467006135    0.2985407403    0.0866634145
H       -0.3947347116   -2.2838489003   -2.0054977441
C        0.3484793909    1.6665685400    1.5096980229
N        0.8015520295    2.3016462427    2.3788076530
6    
Image 2/11, Energy =  -169.0506929242 (+1.364 kcal/mol)
C       -0.3124748437   -1.4420066613   -1.3169247384
C       -0.3765221568   -0.4465904268   -0.6533637896
H       -0.3416903426    0.4152064696   -0.0033113681
H       -0.2264330065   -2.3225287021   -1.8800841263
C        0.3029825411    1.6950278009    1.4861319245
N        0.9541378082    2.1008915186    2.3675520957
6    
Image 3/11, Energy =  -169.0473251490 (+3.477 kcal/mol)
C       -0.2780888105   -1.4059777425   -1.2591295930
C       -0.4852334803   -0.3707125259   -0.6942540462
H       -0.5424031237    0.5232953610   -0.1016314194
H       -0.0533775101   -2.3193279618   -1.7222710382
C        0.2853759031    1.6945369463    1.4664891676
N        1.0737270213    1.8781859214    2.3107969282
6    
Image 4/11, Energy =  -169.0428694815 (+6.273 kcal/mol)
C       -0.2412018722   -1.3524280981   -1.1877261279
C       -0.5887273488   -0.3005881922   -0.7358628145
H       -0.7504917142    0.6172759202   -0.2169820880
H        0.1175025930   -2.2737494118   -1.5355878714
C        0.2976969955    1.6529558996    1.4452416383
N        1.1652213464    1.6565338801    2.2309172633
6    
Image 5/11, Energy =  -169.0373446293 (+9.740 kcal/mol)
C       -0.2064944340   -1.2810438736   -1.1059699615
C       -0.6812258221   -0.2364836423   -0.7716508150
H       -0.9590630332    0.6931813814   -0.3465788547
H        0.2790441482   -2.1831010064   -1.3255619338
C        0.3340461754    1.5517004430    1.4029367827
N        1.2336929657    1.4557466949    2.1468247831
6    
Image 6/11, Energy =  -169.0295818145 (+14.611 kcal/mol)
C       -0.1855306508   -1.1959604926   -1.0236628005
C       -0.7466036790   -0.1704605767   -0.7791134100
H       -1.1459388232    0.7520979791   -0.4681164663
H        0.4246335475   -2.0434958200   -1.0980503161
C        0.3825950433    1.3729974252    1.3052955893
N        1.2708445620    1.2848214815    2.0636474049
6    
Image 7/11, Energy =  -169.0138366629 (+24.491 kcal/mol)
C       -0.2011698010   -1.1310698456   -0.9896265932
C       -0.7294794473   -0.0897199831   -0.7076623733
H       -1.2774204089    0.7869046251   -0.5596833449
H        0.5259857781   -1.8789872551   -0.8903402891
C        0.4232556767    1.1289991416    1.1661187010
N        1.2588282024    1.1838733134    1.9811939012
6    
Image 8/11, Energy =  -168.9961774000 (+35.573 kcal/mol)
C       -0.2504075079   -1.1026246590   -1.0116460597
C       -0.6169743868    0.0073780110   -0.5403120235
H       -1.3248942154    0.7883305321   -0.6013570274
H        0.5686221942   -1.7399190212   -0.7533990473
C        0.4404998150    0.9005076335    1.0207443360
N        1.1831541008    1.1463274999    1.8859698238
6    
Image 9/11, Energy =  -169.0167555186 (+22.660 kcal/mol)
C       -0.2705568439   -1.0735667373   -1.0106192403
C       -0.5088428811    0.0878770576   -0.3873246766
H       -1.3085985744    0.7818401171   -0.5896813053
H        0.5834274084   -1.6879070136   -0.7048364375
C        0.4009586570    0.7806836710    0.9089299379
N        1.1036122341    1.1110729011    1.7835317227
6    
Image 10/11, Energy =  -169.0437609545 (+5.714 kcal/mol)
C       -0.2721093513   -1.0384613434   -0.9953339881
C       -0.4664498990    0.1336943575   -0.3047184047
H       -1.3026915424    0.8069996864   -0.5503883163
H        0.6404231461   -1.5232274468   -0.5526624607
C        0.3524169885    0.6272448767    0.7650856657
N        1.0484106581    0.9937498643    1.6380174988
