6    
Image 0/11, Energy =  -169.0522692293 (+0.292 kcal/mol)
C       -0.3689809232   -1.4576547332   -1.3858823910
C       -0.1536196575   -0.5941379364   -0.5627748996
H        0.0498937432    0.2058682499    0.1931202386
H       -0.5557149982   -2.2230003307   -2.1042277546
C        0.4068909404    1.6172446315    1.5286738868
N        0.6215308952    2.4516801189    2.3310909145
6    
Image 1/11, Energy =  -169.0527348705 (+0.000 kcal/mol)
C       -0.3442101234   -1.4537772522   -1.3573632498
C       -0.2706870758   -0.5226933176   -0.6064294465
H       -0.1462788288    0.2969682892    0.0967821411
H       -0.3900151568   -2.2769171090   -2.0070987050
C        0.3684866862    1.6452555459    1.5049520178
N        0.7827044983    2.3111638434    2.3691572383
6    
Image 2/11, Energy =  -169.0505817338 (+1.351 kcal/mol)
C       -0.3152553297   -1.4390149240   -1.3181049501
C       -0.3852045211   -0.4494076924   -0.6476960193
H       -0.3407168984    0.4054617305    0.0106696737
H       -0.2209818555   -2.3120656181   -1.8887492228
C        0.3371253703    1.6622351079    1.4758411988
N        0.9250332341    2.1327913956    2.3680393167
6    
Image 3/11, Energy =  -169.0472608488 (+3.435 kcal/mol)
C       -0.2831689214   -1.4074831028   -1.2639909728
C       -0.4937881850   -0.3797669455   -0.6883290682
H       -0.5368037482    0.5059548313   -0.0832363252
H       -0.0526731774   -2.3095053368   -1.7418204681
C        0.3286225453    1.6529101907    1.4463712082
N        1.0378114865    1.9378903620    2.3310056240
6    
Image 4/11, Energy =  -169.0426857833 (+6.306 kcal/mol)
C       -0.2488403895   -1.3565111976   -1.1965550936
C       -0.5950684973   -0.3134225918   -0.7256300530
H       -0.7376041814    0.5969262200   -0.1897957481
H        0.1134199871   -2.2661470964   -1.5638083109
C        0.3431921248    1.6039437322    1.4072867260
N        1.1249009559    1.7352109319    2.2685024782
6    
Image 5/11, Energy =  -169.0366898368 (+10.068 kcal/mol)
C       -0.2165726934   -1.2867169267   -1.1180137153
C       -0.6811944219   -0.2481898221   -0.7536741217
H       -0.9385068918    0.6762908927   -0.3081007956
H        0.2724627451   -2.1790062997   -1.3576087989
C        0.3743718756    1.5022885301    1.3492710324
N        1.1894393861    1.5353336234    2.1881263981
6    
Image 6/11, Energy =  -169.0280602877 (+15.484 kcal/mol)
C       -0.1972113948   -1.2071775539   -1.0419494363
C       -0.7319158430   -0.1799452906   -0.7513087332
H       -1.1230364019    0.7378640439   -0.4251903830
H        0.4137412727   -2.0490892133   -1.1393541336
C        0.4107612441    1.3355091709    1.2595348555
N        1.2276611228    1.3628388402    2.0982678297
6    
Image 7/11, Energy =  -169.0120638445 (+25.521 kcal/mol)
C       -0.2104107501   -1.1429878617   -1.0045783304
C       -0.7106256399   -0.0981165692   -0.6799062982
H       -1.2608465967    0.7731930982   -0.5220794414
H        0.5172701451   -1.8928782720   -0.9365226281
C        0.4422401581    1.1175842246    1.1413988296
N        1.2223726835    1.2432053768    2.0016878676
6    
Image 8/11, Energy =  -168.9962095793 (+35.470 kcal/mol)
C       -0.2521019216   -1.1071226275   -1.0124975309
C       -0.6147170212    0.0007661401   -0.5348183990
H       -1.3285274040    0.7771610090   -0.5801573270
H        0.5733092210   -1.7452323601   -0.7799517125
C        0.4535629690    0.9029222431    1.0129923891
N        1.1684741569    1.1715055918    1.8944325795
6    
Image 9/11, Energy =  -169.0185482310 (+21.452 kcal/mol)
C       -0.2719627398   -1.0757315516   -1.0098526822
C       -0.5069209460    0.0856170793   -0.3812101237
H       -1.3135117768    0.7752543906   -0.5708757659
H        0.5941012364   -1.6770995739   -0.7120045114
C        0.4053044921    0.7756592141    0.8955908008
N        1.0929897341    1.1163004375    1.7783522805
6    
Image 10/11, Energy =  -169.0437609544 (+5.631 kcal/mol)
C       -0.2721093513   -1.0384613434   -0.9953339881
C       -0.4664498990    0.1336943575   -0.3047184047
H       -1.3026915424    0.8069996864   -0.5503883163
H        0.6404231461   -1.5232274468   -0.5526624607
C        0.3524169885    0.6272448767    0.7650856657
N        1.0484106581    0.9937498643    1.6380174988
