6    
Image 0/11, Energy =  -169.0522692293 (+0.322 kcal/mol)
C       -0.3689809232   -1.4576547332   -1.3858823910
C       -0.1536196575   -0.5941379364   -0.5627748996
H        0.0498937432    0.2058682499    0.1931202386
H       -0.5557149982   -2.2230003307   -2.1042277546
C        0.4068909404    1.6172446315    1.5286738868
N        0.6215308952    2.4516801189    2.3310909145
6    
Image 1/11, Energy =  -169.0527822150 (+0.000 kcal/mol)
C       -0.3455922411   -1.4540879378   -1.3592825560
C       -0.2714101950   -0.5244852133   -0.6063638522
H       -0.1456617340    0.2930070560    0.0993385578
H       -0.3905282816   -2.2762278256   -2.0108010249
C        0.3738185407    1.6422281274    1.5080916338
N        0.7793739108    2.3195657931    2.3690172375
6    
Image 2/11, Energy =  -169.0507010350 (+1.306 kcal/mol)
C       -0.3186195119   -1.4403689748   -1.3241188932
C       -0.3863007207   -0.4543973873   -0.6474367739
H       -0.3388051080    0.3964812618    0.0156728165
H       -0.2233042962   -2.3115220687   -1.8976190607
C        0.3496781803    1.6546470823    1.4818311157
N        0.9173514561    2.1551600862    2.3716707929
6    
Image 3/11, Energy =  -169.0474338828 (+3.356 kcal/mol)
C       -0.2872311899   -1.4103109726   -1.2728551680
C       -0.4948635393   -0.3874997130   -0.6865569129
H       -0.5328714125    0.4953963774   -0.0761656708
H       -0.0570494309   -2.3106814312   -1.7549802983
C        0.3434162632    1.6451877295    1.4501403222
N        1.0285993089    1.9679080092    2.3404177260
6    
Image 4/11, Energy =  -169.0429908876 (+6.144 kcal/mol)
C       -0.2542038966   -1.3626281601   -1.2070163063
C       -0.5940678507   -0.3232216975   -0.7222216591
H       -0.7285349089    0.5856908509   -0.1802975824
H        0.1057508965   -2.2704738334   -1.5825696734
C        0.3564722314    1.6013481790    1.4086627230
N        1.1145835279    1.7692846597    2.2834424972
6    
Image 5/11, Energy =  -169.0371208099 (+9.828 kcal/mol)
C       -0.2234940352   -1.2960833399   -1.1287351067
C       -0.6793702259   -0.2584526533   -0.7502894162
H       -0.9269651093    0.6652447924   -0.2968058367
H        0.2640425198   -2.1861192225   -1.3795917094
C        0.3863986577    1.5081001700    1.3482345195
N        1.1793881926    1.5673102514    2.2071875488
6    
Image 6/11, Energy =  -169.0285145514 (+15.228 kcal/mol)
C       -0.2041964246   -1.2151641666   -1.0505539949
C       -0.7321865639   -0.1869258020   -0.7513298734
H       -1.1166771540    0.7308787735   -0.4179806470
H        0.4098836672   -2.0540003364   -1.1505519652
C        0.4232994434    1.3497675865    1.2568424907
N        1.2198770318    1.3754439424    2.1135739891
6    
Image 7/11, Energy =  -169.0121404144 (+25.503 kcal/mol)
C       -0.2147206421   -1.1460141831   -1.0074373959
C       -0.7111230211   -0.0994970403   -0.6812219489
H       -1.2617389402    0.7704161241   -0.5197927555
H        0.5195694160   -1.8886120752   -0.9313837443
C        0.4497005290    1.1296745873    1.1334128503
N        1.2183126583    1.2340325840    2.0064229935
6    
Image 8/11, Energy =  -168.9961818210 (+35.517 kcal/mol)
C       -0.2529011406   -1.1079088369   -1.0114760399
C       -0.6131663440    0.0024155434   -0.5342836390
H       -1.3294437566    0.7762221696   -0.5783826264
H        0.5755328474   -1.7410537810   -0.7750975593
C        0.4529764212    0.9091176618    1.0058111814
N        1.1670019725    1.1612072395    1.8934286822
6    
Image 9/11, Energy =  -169.0199533547 (+20.600 kcal/mol)
C       -0.2713431469   -1.0745033739   -1.0072640968
C       -0.5030681985    0.0897847322   -0.3775824887
H       -1.3137695428    0.7755860991   -0.5688463505
H        0.5956897599   -1.6759466962   -0.7090006044
C        0.4037451110    0.7747463118    0.8882050869
N        1.0887460173    1.1103329230    1.7744884517
6    
Image 10/11, Energy =  -169.0437609544 (+5.661 kcal/mol)
C       -0.2721093513   -1.0384613434   -0.9953339881
C       -0.4664498990    0.1336943575   -0.3047184047
H       -1.3026915424    0.8069996864   -0.5503883163
H        0.6404231461   -1.5232274468   -0.5526624607
C        0.3524169885    0.6272448767    0.7650856657
N        1.0484106581    0.9937498643    1.6380174988
