6    
Image 0/11, Energy =  -169.0522692293 (+0.000 kcal/mol)
C       -0.3689809232   -1.4576547332   -1.3858823910
C       -0.1536196575   -0.5941379364   -0.5627748996
H        0.0498937432    0.2058682499    0.1931202386
H       -0.5557149982   -2.2230003307   -2.1042277546
C        0.4068909404    1.6172446315    1.5286738868
N        0.6215308952    2.4516801189    2.3310909145
6    
Image 1/11, Energy =  -169.0522614510 (+0.005 kcal/mol)
C       -0.3537175828   -1.4522265095   -1.3627093748
C       -0.2697796679   -0.5175366759   -0.6119478146
H       -0.1374533212    0.2713686509    0.1233429213
H       -0.4020665727   -2.2636812064   -2.0272887975
C        0.4417444820    1.5741157025    1.5421745868
N        0.7212726626    2.3879600375    2.3364284764
6    
Image 2/11, Energy =  -169.0492909826 (+1.869 kcal/mol)
C       -0.3351320861   -1.4368419393   -1.3309281694
C       -0.3875381478   -0.4513389863   -0.6506335488
H       -0.3211075426    0.3571912976    0.0609619177
H       -0.2419611313   -2.2879639306   -1.9357416032
C        0.4688519901    1.5232373958    1.5264517390
N        0.8168869177    2.2957161630    2.3298896642
6    
Image 3/11, Energy =  -169.0453266843 (+4.357 kcal/mol)
C       -0.2989192469   -1.4108642125   -1.2804688767
C       -0.5046313742   -0.3916990618   -0.6858970836
H       -0.5156484915    0.4582014487   -0.0363001131
H       -0.0811044494   -2.2873206470   -1.8067400821
C        0.4776080948    1.4752967705    1.4865176975
N        0.9226954665    2.1563857011    2.3228884579
6    
Image 4/11, Energy =  -169.0405704676 (+7.341 kcal/mol)
C       -0.2517406956   -1.3644439650   -1.2142033276
C       -0.6145873489   -0.3363174837   -0.7220880458
H       -0.7287957599    0.5494156675   -0.1429437792
H        0.0811458218   -2.2575953104   -1.6456376994
C        0.4852803254    1.4354613316    1.4184792738
N        1.0286976557    1.9734797596    2.3063935782
6    
Image 5/11, Energy =  -169.0353901896 (+10.592 kcal/mol)
C       -0.2089842720   -1.3032596233   -1.1304512066
C       -0.6970185686   -0.2760954070   -0.7419330245
H       -0.9311320848    0.6399451796   -0.2638786325
H        0.2367614084   -2.1946491718   -1.4527819810
C        0.4828885051    1.4040691976    1.3305110116
N        1.1174850108    1.7299898247    2.2585338324
6    
Image 6/11, Energy =  -169.0291252312 (+14.523 kcal/mol)
C       -0.1843277157   -1.2274398710   -1.0365839885
C       -0.7444686544   -0.2116963311   -0.7341465554
H       -1.1092876595    0.7188827218   -0.3893258977
H        0.3847544129   -2.0888270443   -1.2354291936
C        0.4819866376    1.3479215699    1.2286926580
N        1.1713429777    1.4611589539    2.1667929764
6    
Image 7/11, Energy =  -169.0171052051 (+22.066 kcal/mol)
C       -0.1890964823   -1.1543049113   -0.9689894933
C       -0.7317791259   -0.1245775882   -0.6781370162
H       -1.2456460080    0.7737084386   -0.4956016069
H        0.5089942641   -1.9416333908   -1.0022659054
C        0.4757095732    1.2283314062    1.1061103291
N        1.1818177785    1.2184760432    2.0388836938
6    
Image 8/11, Energy =  -168.9964996556 (+34.996 kcal/mol)
C       -0.2313241223   -1.1086711796   -0.9688118931
C       -0.6269768413   -0.0164797866   -0.5465807826
H       -1.3141526016    0.7842981188   -0.5588283774
H        0.5714272443   -1.7988014992   -0.8261151633
C        0.4534594298    1.0326530291    0.9850332903
N        1.1475668911    1.1070013149    1.9153029263
6    
Image 9/11, Energy =  -169.0167611427 (+22.282 kcal/mol)
C       -0.2670600703   -1.0737942894   -0.9860532462
C       -0.4954124074    0.0914102777   -0.3732707734
H       -1.3081680560    0.7668757516   -0.5580815367
H        0.5894664364   -1.7049237314   -0.7444549981
C        0.4034473512    0.8322116806    0.8710206377
N        1.0777267461    1.0882203067    1.7908399165
6    
Image 10/11, Energy =  -169.0437609544 (+5.339 kcal/mol)
C       -0.2721093513   -1.0384613434   -0.9953339881
C       -0.4664498990    0.1336943575   -0.3047184047
H       -1.3026915424    0.8069996864   -0.5503883163
H        0.6404231461   -1.5232274468   -0.5526624607
C        0.3524169885    0.6272448767    0.7650856657
N        1.0484106581    0.9937498643    1.6380174988
