6    
Image 0/11, Energy =  -169.0522692291 (+0.375 kcal/mol)
C       -0.3689809232   -1.4576547332   -1.3858823910
C       -0.1536196575   -0.5941379364   -0.5627748996
H        0.0498937432    0.2058682499    0.1931202386
H       -0.5557149982   -2.2230003307   -2.1042277546
C        0.4068909404    1.6172446315    1.5286738868
N        0.6215308952    2.4516801189    2.3310909145
6    
Image 1/11, Energy =  -169.0528662057 (+0.000 kcal/mol)
C       -0.3434199789   -1.4587224214   -1.3583666394
C       -0.2651761167   -0.5241842017   -0.6113047105
H       -0.1467006135    0.2985407403    0.0866634145
H       -0.3947347116   -2.2838489003   -2.0054977441
C        0.3484793909    1.6665685400    1.5096980229
N        0.8015520295    2.3016462427    2.3788076530
6    
Image 2/11, Energy =  -169.0506929242 (+1.364 kcal/mol)
C       -0.3124748437   -1.4420066613   -1.3169247384
C       -0.3765221568   -0.4465904268   -0.6533637896
H       -0.3416903426    0.4152064696   -0.0033113681
H       -0.2264330065   -2.3225287021   -1.8800841263
C        0.3029825411    1.6950278009    1.4861319245
N        0.9541378082    2.1008915186    2.3675520957
6    
Image 3/11, Energy =  -169.0473251490 (+3.477 kcal/mol)
C       -0.2780888105   -1.4059777425   -1.2591295930
C       -0.4852334803   -0.3707125259   -0.6942540462
H       -0.5424031237    0.5232953610   -0.1016314194
H       -0.0533775101   -2.3193279618   -1.7222710382
C        0.2853759031    1.6945369463    1.4664891676
N        1.0737270213    1.8781859214    2.3107969282
6    
Image 4/11, Energy =  -169.0427907201 (+6.322 kcal/mol)
C       -0.2404902725   -1.3513531657   -1.1867080135
C       -0.5901357486   -0.2991823853   -0.7373868474
H       -0.7543232567    0.6191096419   -0.2203720576
H        0.1198483197   -2.2730917962   -1.5318864850
C        0.2972716532    1.6518284857    1.4467210091
N        1.1678293048    1.6526892172    2.2296323943
6    
Image 5/11, Energy =  -169.0372817670 (+9.779 kcal/mol)
C       -0.2058499579   -1.2800025559   -1.1048408431
C       -0.6822099899   -0.2354652152   -0.7728541769
H       -0.9623399989    0.6942816924   -0.3497859723
H        0.2806874885   -2.1819991259   -1.3225407158
C        0.3342244486    1.5506012595    1.4042797865
N        1.2354880094    1.4525839423    2.1457419225
6    
Image 6/11, Energy =  -169.0294996243 (+14.663 kcal/mol)
C       -0.1851618176   -1.1946998972   -1.0225401729
C       -0.7474214939   -0.1694537399   -0.7797560703
H       -1.1484296730    0.7529010292   -0.4705081881
H        0.4262453533   -2.0415348344   -1.0946729306
C        0.3828174282    1.3712335165    1.3051604742
N        1.2719502029    1.2815539224    2.0623168891
6    
Image 7/11, Energy =  -169.0137073570 (+24.573 kcal/mol)
C       -0.2011757476   -1.1304861771   -0.9890574968
C       -0.7294686821   -0.0889627748   -0.7071459611
H       -1.2783913391    0.7873470700   -0.5606329856
H        0.5268519861   -1.8775249403   -0.8884969210
C        0.4233314521    1.1274459918    1.1650616823
N        1.2588523306    1.1821808267    1.9802716839
6    
Image 8/11, Energy =  -168.9961774000 (+35.573 kcal/mol)
C       -0.2504075079   -1.1026246590   -1.0116460597
C       -0.6169743868    0.0073780110   -0.5403120235
H       -1.3248942154    0.7883305321   -0.6013570274
H        0.5686221942   -1.7399190212   -0.7533990473
C        0.4404998150    0.9005076335    1.0207443360
N        1.1831541008    1.1463274999    1.8859698238
6    
Image 9/11, Energy =  -169.0167555186 (+22.660 kcal/mol)
C       -0.2705568439   -1.0735667373   -1.0106192403
C       -0.5088428811    0.0878770576   -0.3873246766
H       -1.3085985744    0.7818401171   -0.5896813053
H        0.5834274084   -1.6879070136   -0.7048364375
C        0.4009586570    0.7806836710    0.9089299379
N        1.1036122341    1.1110729011    1.7835317227
6    
Image 10/11, Energy =  -169.0437609545 (+5.714 kcal/mol)
C       -0.2721093513   -1.0384613434   -0.9953339881
C       -0.4664498990    0.1336943575   -0.3047184047
H       -1.3026915424    0.8069996864   -0.5503883163
H        0.6404231461   -1.5232274468   -0.5526624607
C        0.3524169885    0.6272448767    0.7650856657
N        1.0484106581    0.9937498643    1.6380174988
