6    
Image 0/11, Energy =  -169.0522692293 (+0.286 kcal/mol)
C       -0.3689809232   -1.4576547332   -1.3858823910
C       -0.1536196575   -0.5941379364   -0.5627748996
H        0.0498937432    0.2058682499    0.1931202386
H       -0.5557149982   -2.2230003307   -2.1042277546
C        0.4068909404    1.6172446315    1.5286738868
N        0.6215308952    2.4516801189    2.3310909145
6    
Image 1/11, Energy =  -169.0527257662 (+0.000 kcal/mol)
C       -0.3438247877   -1.4537947796   -1.3571408449
C       -0.2706314543   -0.5219830503   -0.6062637959
H       -0.1464963629    0.2978130258    0.0962044828
H       -0.3898329906   -2.2770305051   -2.0060839732
C        0.3671999278    1.6455366604    1.5039747256
N        0.7835856675    2.3094586485    2.3693094016
6    
Image 2/11, Energy =  -169.0505628795 (+1.357 kcal/mol)
C       -0.3147020247   -1.4388963223   -1.3176184515
C       -0.3852061585   -0.4484501781   -0.6474376295
H       -0.3410682930    0.4066344453    0.0098348074
H       -0.2206355314   -2.3120158297   -1.8873065302
C        0.3354959815    1.6625713307    1.4748538798
N        0.9261160257    2.1301565536    2.3676739211
6    
Image 3/11, Energy =  -169.0472244945 (+3.452 kcal/mol)
C       -0.2824832304   -1.4066039768   -1.2631060529
C       -0.4939195289   -0.3788076122   -0.6882725780
H       -0.5375996618    0.5077564846   -0.0844347085
H       -0.0518676775   -2.3094137453   -1.7395428700
C        0.3269147539    1.6533614579    1.4459117506
N        1.0389553442    1.9337073907    2.3294444567
6    
Image 4/11, Energy =  -169.0426303201 (+6.335 kcal/mol)
C       -0.2481261817   -1.3552918086   -1.1951629327
C       -0.5952831322   -0.3121790952   -0.7259899618
H       -0.7390946518    0.5988976529   -0.1912748684
H        0.1147291263   -2.2656290993   -1.5609271052
C        0.3418146983    1.6037100731    1.4075047239
N        1.1259601407    1.7304922755    2.2658501428
6    
Image 5/11, Energy =  -169.0366264213 (+10.102 kcal/mol)
C       -0.2157719943   -1.2854643193   -1.1164143961
C       -0.6812866886   -0.2469654900   -0.7540430135
H       -0.9400279555    0.6777542898   -0.3095458670
H        0.2736332150   -2.1780033128   -1.3550235501
C        0.3725676195    1.5009337088    1.3492800714
N        1.1908858037    1.5317451211    2.1857467544
6    
Image 6/11, Energy =  -169.0280138673 (+15.507 kcal/mol)
C       -0.1964259257   -1.2062164520   -1.0408248528
C       -0.7320733451   -0.1791672682   -0.7515685383
H       -1.1238642762    0.7386799819   -0.4263190065
H        0.4142782595   -2.0483920241   -1.1379635585
C        0.4098197329    1.3337431080    1.2607335752
N        1.2282655545    1.3613526516    2.0959423798
6    
Image 7/11, Energy =  -169.0120521307 (+25.523 kcal/mol)
C       -0.2101158370   -1.1426509127   -1.0044554413
C       -0.7107643029   -0.0977708936   -0.6801209175
H       -1.2611642316    0.7734353148   -0.5228655358
H        0.5172420417   -1.8926933412   -0.9360938603
C        0.4416390340    1.1161853300    1.1425466215
N        1.2231632958    1.2434944994    2.0009891325
6    
Image 8/11, Energy =  -168.9962095793 (+35.464 kcal/mol)
C       -0.2521019216   -1.1071226275   -1.0124975309
C       -0.6147170212    0.0007661401   -0.5348183990
H       -1.3285274040    0.7771610090   -0.5801573270
H        0.5733092210   -1.7452323601   -0.7799517125
C        0.4535629690    0.9029222431    1.0129923891
N        1.1684741569    1.1715055918    1.8944325795
6    
Image 9/11, Energy =  -169.0185482310 (+21.447 kcal/mol)
C       -0.2719627398   -1.0757315516   -1.0098526822
C       -0.5069209460    0.0856170793   -0.3812101237
H       -1.3135117768    0.7752543906   -0.5708757659
H        0.5941012364   -1.6770995739   -0.7120045114
C        0.4053044921    0.7756592141    0.8955908008
N        1.0929897341    1.1163004375    1.7783522805
6    
Image 10/11, Energy =  -169.0437609544 (+5.626 kcal/mol)
C       -0.2721093513   -1.0384613434   -0.9953339881
C       -0.4664498990    0.1336943575   -0.3047184047
H       -1.3026915424    0.8069996864   -0.5503883163
H        0.6404231461   -1.5232274468   -0.5526624607
C        0.3524169885    0.6272448767    0.7650856657
N        1.0484106581    0.9937498643    1.6380174988
