6    
Image 0/11, Energy =  -169.0522692293 (+0.250 kcal/mol)
C       -0.3689809232   -1.4576547332   -1.3858823910
C       -0.1536196575   -0.5941379364   -0.5627748996
H        0.0498937432    0.2058682499    0.1931202386
H       -0.5557149982   -2.2230003307   -2.1042277546
C        0.4068909404    1.6172446315    1.5286738868
N        0.6215308952    2.4516801189    2.3310909145
6    
Image 1/11, Energy =  -169.0526671643 (+0.000 kcal/mol)
C       -0.3516974663   -1.4494709001   -1.3665490854
C       -0.2770398774   -0.5270934232   -0.6040677314
H       -0.1365697615    0.2759609727    0.1134004354
H       -0.3945846626   -2.2672299630   -2.0219456191
C        0.4156327049    1.6013176810    1.5294787530
N        0.7442590628    2.3665156324    2.3496832444
6    
Image 2/11, Energy =  -169.0502557215 (+1.513 kcal/mol)
C       -0.3278523329   -1.4349872876   -1.3384346971
C       -0.3976176084   -0.4611631788   -0.6452787430
H       -0.3251085425    0.3703964845    0.0384212391
H       -0.2319701926   -2.2997773665   -1.9203840317
C        0.4208485756    1.5750275909    1.5102481716
N        0.8617001002    2.2505037570    2.3554280596
6    
Image 3/11, Energy =  -169.0466374939 (+3.784 kcal/mol)
C       -0.2991258910   -1.4076434474   -1.2938446892
C       -0.5087040359   -0.4000750056   -0.6840180502
H       -0.5220699682    0.4649050678   -0.0503195764
H       -0.0678633701   -2.2999865737   -1.7879378268
C        0.4279032677    1.5439267393    1.4712048046
N        0.9698599967    2.0988732193    2.3449153374
6    
Image 4/11, Energy =  -169.0421474364 (+6.601 kcal/mol)
C       -0.2672676437   -1.3674534814   -1.2280275192
C       -0.6051928418   -0.3396072062   -0.7193198275
H       -0.7216540714    0.5557756276   -0.1550224069
H        0.0933707050   -2.2646184356   -1.6245556011
C        0.4348973571    1.5094008701    1.4127907832
N        1.0658464940    1.9065026250    2.3141345711
6    
Image 5/11, Energy =  -169.0368098763 (+9.951 kcal/mol)
C       -0.2336290528   -1.3087369164   -1.1459054187
C       -0.6841321325   -0.2779042810   -0.7434129330
H       -0.9176080544    0.6391633269   -0.2704831488
H        0.2484028081   -2.1920991869   -1.4295910037
C        0.4463941185    1.4622927896    1.3361993653
N        1.1405723122    1.6772842669    2.2531931387
6    
Image 6/11, Energy =  -169.0298025901 (+14.348 kcal/mol)
C       -0.2049339226   -1.2318307088   -1.0582513899
C       -0.7328024333   -0.2084756034   -0.7455206353
H       -1.0958775218    0.7108310198   -0.3865303025
H        0.3884575756   -2.0800925095   -1.2073172731
C        0.4603112183    1.3745165494    1.2402217089
N        1.1848450831    1.4350512509    2.1573978921
6    
Image 7/11, Energy =  -169.0162983399 (+22.822 kcal/mol)
C       -0.2026326225   -1.1573124022   -0.9950440707
C       -0.7191740654   -0.1199316242   -0.6916523896
H       -1.2412917968    0.7612963938   -0.4882418896
H        0.5018007578   -1.9319005620   -0.9863303149
C        0.4694809395    1.2039041658    1.1211590917
N        1.1918167869    1.2439440264    2.0401095729
6    
Image 8/11, Energy =  -168.9960749597 (+35.512 kcal/mol)
C       -0.2403166420   -1.1072983883   -0.9834843008
C       -0.6227743470    0.0013882658   -0.5474882016
H       -1.3345477316    0.7786298253   -0.5680958016
H        0.5794177209   -1.7617808511   -0.7910613865
C        0.4622421317    0.9620230767    0.9837151037
N        1.1559788680    1.1270380683    1.9064145865
6    
Image 9/11, Energy =  -169.0133093432 (+24.697 kcal/mol)
C       -0.2672956659   -1.0812590812   -0.9949371849
C       -0.5135238556    0.0815320226   -0.3995584449
H       -1.3161702343    0.7740373118   -0.5634897663
H        0.5929028740   -1.6970097015   -0.7307152533
C        0.4136757009    0.8206785595    0.8887514802
N        1.0904111808    1.1020208853    1.7999491676
6    
Image 10/11, Energy =  -169.0437609544 (+5.589 kcal/mol)
C       -0.2721093513   -1.0384613434   -0.9953339881
C       -0.4664498990    0.1336943575   -0.3047184047
H       -1.3026915424    0.8069996864   -0.5503883163
H        0.6404231461   -1.5232274468   -0.5526624607
C        0.3524169885    0.6272448767    0.7650856657
N        1.0484106581    0.9937498643    1.6380174988
