6    
Image 0/11, Energy =  -169.0522692293 (+0.180 kcal/mol)
C       -0.3689809232   -1.4576547332   -1.3858823910
C       -0.1536196575   -0.5941379364   -0.5627748996
H        0.0498937432    0.2058682499    0.1931202386
H       -0.5557149982   -2.2230003307   -2.1042277546
C        0.4068909404    1.6172446315    1.5286738868
N        0.6215308952    2.4516801189    2.3310909145
6    
Image 1/11, Energy =  -169.0525562907 (+0.000 kcal/mol)
C       -0.3498935211   -1.4467055356   -1.3694908679
C       -0.2794505843   -0.5279941958   -0.6015674677
H       -0.1333306941    0.2744821808    0.1157556571
H       -0.3983378159   -2.2662392505   -2.0238505310
C        0.4276314729    1.5892713185    1.5368619769
N        0.7333811424    2.3771854822    2.3422912297
6    
Image 2/11, Energy =  -169.0499259140 (+1.651 kcal/mol)
C       -0.3258765431   -1.4323397090   -1.3397990638
C       -0.3999402097   -0.4614101061   -0.6419297229
H       -0.3206327179    0.3677211942    0.0440775817
H       -0.2374014153   -2.2960550144   -1.9250854829
C        0.4406818041    1.5513783641    1.5175486059
N        0.8431690816    2.2707052709    2.3451880808
6    
Image 3/11, Energy =  -169.0461678949 (+4.009 kcal/mol)
C       -0.2976038320   -1.4070178050   -1.2913116842
C       -0.5099975513   -0.3974032277   -0.6846974189
H       -0.5190604935    0.4622909944   -0.0430539374
H       -0.0733370423   -2.2970477797   -1.7952981950
C        0.4499078458    1.5136507287    1.4769466532
N        0.9500910725    2.1255270890    2.3374145820
6    
Image 4/11, Energy =  -169.0415483809 (+6.908 kcal/mol)
C       -0.2640074398   -1.3666461274   -1.2252899567
C       -0.6079697022   -0.3382293215   -0.7180459109
H       -0.7249238265    0.5535239023   -0.1508557716
H        0.0898794571   -2.2623034720   -1.6333755511
C        0.4574980507    1.4764111680    1.4161295152
N        1.0495234596    1.9372438500    2.3114376748
6    
Image 5/11, Energy =  -169.0363101293 (+10.195 kcal/mol)
C       -0.2284203133   -1.3066944763   -1.1412743236
C       -0.6872278545   -0.2799437956   -0.7412617521
H       -0.9215919063    0.6352426470   -0.2690637486
H        0.2436563555   -2.1895099767   -1.4400120140
C        0.4637396903    1.4369286050    1.3345877562
N        1.1298440273    1.7039769960    2.2570240816
6    
Image 6/11, Energy =  -169.0296515333 (+14.373 kcal/mol)
C       -0.1984895831   -1.2304933350   -1.0487153339
C       -0.7375923999   -0.2103013305   -0.7433857837
H       -1.0978149313    0.7077699676   -0.3881733112
H        0.3849661984   -2.0781335490   -1.2168621200
C        0.4700471964    1.3673698784    1.2348426252
N        1.1788835187    1.4437883671    2.1622939238
6    
Image 7/11, Energy =  -169.0168072372 (+22.433 kcal/mol)
C       -0.1959228249   -1.1560782938   -0.9851214088
C       -0.7238559567   -0.1218194764   -0.6886892717
H       -1.2382265396    0.7603937358   -0.4899836523
H        0.4992049157   -1.9333563374   -0.9919414258
C        0.4718638047    1.2182406192    1.1154230596
N        1.1869366004    1.2326197504    2.0403126993
6    
Image 8/11, Energy =  -168.9964882087 (+35.183 kcal/mol)
C       -0.2329181769   -1.1083901762   -0.9772561636
C       -0.6250666917   -0.0119237304   -0.5526417445
H       -1.3178242424    0.7770280822   -0.5546696186
H        0.5676185610   -1.7865815252   -0.8198836281
C        0.4569744503    0.9993285296    0.9884307192
N        1.1512160997    1.1305388168    1.9160204355
6    
Image 9/11, Energy =  -169.0133238712 (+24.619 kcal/mol)
C       -0.2642048783   -1.0815957358   -0.9902628785
C       -0.5115333800    0.0826477482   -0.3949664888
H       -1.3110552221    0.7791907834   -0.5589100977
H        0.5929176690   -1.7070340908   -0.7387655776
C        0.4085476733    0.8286887971    0.8843802354
N        1.0853281381    1.0981024946    1.7985248057
6    
Image 10/11, Energy =  -169.0437609544 (+5.519 kcal/mol)
C       -0.2721093513   -1.0384613434   -0.9953339881
C       -0.4664498990    0.1336943575   -0.3047184047
H       -1.3026915424    0.8069996864   -0.5503883163
H        0.6404231461   -1.5232274468   -0.5526624607
C        0.3524169885    0.6272448767    0.7650856657
N        1.0484106581    0.9937498643    1.6380174988
