6    
Image 0/11, Energy =  -169.0522692293 (+0.349 kcal/mol)
C       -0.3689809232   -1.4576547332   -1.3858823910
C       -0.1536196575   -0.5941379364   -0.5627748996
H        0.0498937432    0.2058682499    0.1931202386
H       -0.5557149982   -2.2230003307   -2.1042277546
C        0.4068909404    1.6172446315    1.5286738868
N        0.6215308952    2.4516801189    2.3310909145
6    
Image 1/11, Energy =  -169.0528250657 (+0.000 kcal/mol)
C       -0.3466160442   -1.4529208470   -1.3641429939
C       -0.2748802068   -0.5274530436   -0.6053728785
H       -0.1436766719    0.2863672762    0.1024921880
H       -0.3914160329   -2.2749335417   -2.0148348049
C        0.3843634513    1.6346022536    1.5152886615
N        0.7722255042    2.3343379023    2.3665698240
6    
Image 2/11, Energy =  -169.0507456292 (+1.305 kcal/mol)
C       -0.3211270559   -1.4399153291   -1.3311550064
C       -0.3932247257   -0.4598601032   -0.6466920034
H       -0.3349709217    0.3860670097    0.0218492770
H       -0.2244181774   -2.3094691019   -1.9066331213
C        0.3673362293    1.6397568859    1.4898975718
N        0.9064046509    2.1834206384    2.3727332798
6    
Image 3/11, Energy =  -169.0474998546 (+3.342 kcal/mol)
C       -0.2926165834   -1.4118717717   -1.2817355890
C       -0.5016322892   -0.3946609216   -0.6883512637
H       -0.5268260269    0.4820959158   -0.0683075856
H       -0.0594792697   -2.3095959847   -1.7673789953
C        0.3631177413    1.6291220171    1.4559612619
N        1.0174364273    2.0049107444    2.3498121702
6    
Image 4/11, Energy =  -169.0431276418 (+6.085 kcal/mol)
C       -0.2600372325   -1.3672699234   -1.2161818611
C       -0.5992285343   -0.3316684613   -0.7246188035
H       -0.7212028656    0.5714313010   -0.1702430679
H        0.1011579257   -2.2714679557   -1.5985041872
C        0.3748077861    1.5914923482    1.4098240488
N        1.1045029200    1.8074826902    2.2997238703
6    
Image 5/11, Energy =  -169.0375422581 (+9.590 kcal/mol)
C       -0.2267833695   -1.3038404769   -1.1374502113
C       -0.6817628167   -0.2686392231   -0.7512596186
H       -0.9132393181    0.6519031502   -0.2818827707
H        0.2539389166   -2.1935372468   -1.4021067078
C        0.4009308543    1.5114140562    1.3462873125
N        1.1669157330    1.6026997386    2.2264119956
6    
Image 6/11, Energy =  -169.0294838161 (+14.647 kcal/mol)
C       -0.2041106108   -1.2232376399   -1.0552868135
C       -0.7364926411   -0.1983102547   -0.7549082976
H       -1.1011980212    0.7212820422   -0.4023636294
H        0.3989626979   -2.0672024043   -1.1754033333
C        0.4350553871    1.3668104788    1.2548827210
N        1.2077831878    1.4006577756    2.1330793525
6    
Image 7/11, Energy =  -169.0131499492 (+24.897 kcal/mol)
C       -0.2147212511   -1.1485788397   -1.0063569287
C       -0.7196990533   -0.1047962703   -0.6891168261
H       -1.2631332748    0.7668808078   -0.5180256367
H        0.5198981200   -1.8893211772   -0.9330357827
C        0.4630751062    1.1449157224    1.1280524849
N        1.2145803529    1.2308997538    2.0184826887
6    
Image 8/11, Energy =  -168.9961699207 (+35.552 kcal/mol)
C       -0.2577829690   -1.1071025557   -1.0107715842
C       -0.6115586885    0.0103228936   -0.5314484389
H       -1.3417121261    0.7715709233   -0.5878883148
H        0.5835119856   -1.7165431236   -0.7496219539
C        0.4600498007    0.9062709491    0.9902257600
N        1.1674919973    1.1354809097    1.8895045309
6    
Image 9/11, Energy =  -169.0187541479 (+21.380 kcal/mol)
C       -0.2730993890   -1.0766619778   -1.0062825381
C       -0.5120288613    0.0903348476   -0.3886218723
H       -1.3247010854    0.7712107534   -0.5810629067
H        0.6020984845   -1.6516434539   -0.6849571216
C        0.4088328922    0.7791546511    0.8841261809
N        1.0988979590    1.0876051758    1.7767982558
6    
Image 10/11, Energy =  -169.0437609544 (+5.688 kcal/mol)
C       -0.2721093513   -1.0384613434   -0.9953339881
C       -0.4664498990    0.1336943575   -0.3047184047
H       -1.3026915424    0.8069996864   -0.5503883163
H        0.6404231461   -1.5232274468   -0.5526624607
C        0.3524169885    0.6272448767    0.7650856657
N        1.0484106581    0.9937498643    1.6380174988
