6    
Image 0/11, Energy =  -169.0522692293 (+0.350 kcal/mol)
C       -0.3689809232   -1.4576547332   -1.3858823910
C       -0.1536196575   -0.5941379364   -0.5627748996
H        0.0498937432    0.2058682499    0.1931202386
H       -0.5557149982   -2.2230003307   -2.1042277546
C        0.4068909404    1.6172446315    1.5286738868
N        0.6215308952    2.4516801189    2.3310909145
6    
Image 1/11, Energy =  -169.0528264376 (+0.000 kcal/mol)
C       -0.3467091464   -1.4527260419   -1.3651504219
C       -0.2757330262   -0.5277900982   -0.6045750229
H       -0.1429451321    0.2860788547    0.1028638361
H       -0.3915301126   -2.2753291844   -2.0156781454
C        0.3858753076    1.6333980875    1.5165258369
N        0.7710421093    2.3363683819    2.3660139134
6    
Image 2/11, Energy =  -169.0507508973 (+1.302 kcal/mol)
C       -0.3221871862   -1.4398244573   -1.3322848385
C       -0.3944948667   -0.4604999934   -0.6468034105
H       -0.3343346756    0.3845973366    0.0234170870
H       -0.2240147960   -2.3097244203   -1.9085286341
C        0.3706893940    1.6373304029    1.4918008088
N        0.9043421300    2.1881211312    2.3723989848
6    
Image 3/11, Energy =  -169.0474994122 (+3.343 kcal/mol)
C       -0.2943052641   -1.4128395289   -1.2821543815
C       -0.5030509770   -0.3947050846   -0.6904072157
H       -0.5260370193    0.4798449920   -0.0658546976
H       -0.0590102297   -2.3100276072   -1.7702498662
C        0.3674900992    1.6266273379    1.4582685718
N        1.0149133904    2.0110998901    2.3503975878
6    
Image 4/11, Energy =  -169.0431342154 (+6.082 kcal/mol)
C       -0.2611517591   -1.3685078718   -1.2179092066
C       -0.6010962689   -0.3321426675   -0.7255082994
H       -0.7201090806    0.5691411167   -0.1681311564
H        0.1011973369   -2.2721596146   -1.6011279466
C        0.3794287327    1.5900417956    1.4114395778
N        1.1017310384    1.8136272407    2.3012370307
6    
Image 5/11, Energy =  -169.0376012940 (+9.554 kcal/mol)
C       -0.2269504601   -1.3046742028   -1.1392792642
C       -0.6830363094   -0.2699434050   -0.7518860834
H       -0.9108167422    0.6496297618   -0.2795425802
H        0.2525392792   -2.1947941197   -1.4044759961
C        0.4028426907    1.5125586720    1.3453486600
N        1.1654215414    1.6072232921    2.2298352636
6    
Image 6/11, Energy =  -169.0296531620 (+14.541 kcal/mol)
C       -0.2035892489   -1.2247602618   -1.0562004240
C       -0.7366428523   -0.2001730840   -0.7555031848
H       -1.0973257921    0.7186351493   -0.3987308025
H        0.3958677948   -2.0698218382   -1.1805339333
C        0.4360336622    1.3700140276    1.2541554163
N        1.2056564359    1.4061060046    2.1368129280
6    
Image 7/11, Energy =  -169.0134255907 (+24.724 kcal/mol)
C       -0.2140435544   -1.1487955208   -1.0058431287
C       -0.7210526850   -0.1069151824   -0.6907532203
H       -1.2618821337    0.7654628458   -0.5164224530
H        0.5183980425   -1.8910925084   -0.9363452783
C        0.4653222226    1.1478979232    1.1278709380
N        1.2132581078    1.2334424396    2.0214931417
6    
Image 8/11, Energy =  -168.9961739627 (+35.550 kcal/mol)
C       -0.2581626392   -1.1064442473   -1.0091270327
C       -0.6121361209    0.0130153223   -0.5313572571
H       -1.3460091929    0.7703056773   -0.5919005093
H        0.5852298593   -1.7089893558   -0.7427847273
C        0.4630959599    0.9024966822    0.9868221139
N        1.1679821338    1.1296159176    1.8883474115
6    
Image 9/11, Energy =  -169.0178991152 (+21.917 kcal/mol)
C       -0.2715367372   -1.0772884427   -1.0035021878
C       -0.5171574316    0.0900804681   -0.3942774203
H       -1.3297848140    0.7721847588   -0.5838907031
H        0.6043039833   -1.6470237093   -0.6807545685
C        0.4122741688    0.7788699709    0.8843116047
N        1.1019008308    1.0831769502    1.7781132729
6    
Image 10/11, Energy =  -169.0437609544 (+5.689 kcal/mol)
C       -0.2721093513   -1.0384613434   -0.9953339881
C       -0.4664498990    0.1336943575   -0.3047184047
H       -1.3026915424    0.8069996864   -0.5503883163
H        0.6404231461   -1.5232274468   -0.5526624607
C        0.3524169885    0.6272448767    0.7650856657
N        1.0484106581    0.9937498643    1.6380174988
