6    
Image 0/11, Energy =  -169.0522692293 (+0.160 kcal/mol)
C       -0.3689809232   -1.4576547332   -1.3858823910
C       -0.1536196575   -0.5941379364   -0.5627748996
H        0.0498937432    0.2058682499    0.1931202386
H       -0.5557149982   -2.2230003307   -2.1042277546
C        0.4068909404    1.6172446315    1.5286738868
N        0.6215308952    2.4516801189    2.3310909145
6    
Image 1/11, Energy =  -169.0525239411 (+0.000 kcal/mol)
C       -0.3408131592   -1.4507797268   -1.3523913965
C       -0.2713965716   -0.5134989684   -0.6081359930
H       -0.1527336751    0.3096992204    0.0917392098
H       -0.3840479599   -2.2797258551   -1.9937114667
C        0.3560034261    1.6457251333    1.4960767392
N        0.7929879397    2.2885801960    2.3664229029
6    
Image 2/11, Energy =  -169.0501119485 (+1.514 kcal/mol)
C       -0.3095770952   -1.4311960829   -1.3090784280
C       -0.3895584837   -0.4332544553   -0.6523307237
H       -0.3545364019    0.4265421360   -0.0001145911
H       -0.2075504696   -2.3138819320   -1.8622250840
C        0.3207987547    1.6587992518    1.4671189020
N        0.9404236956    2.0929910814    2.3566299214
6    
Image 3/11, Energy =  -169.0465600302 (+3.742 kcal/mol)
C       -0.2761304092   -1.3956470595   -1.2516093012
C       -0.5006634010   -0.3608104523   -0.6945740084
H       -0.5562848885    0.5303400909   -0.0990942399
H       -0.0338787727   -2.3064226016   -1.7060690917
C        0.3120481751    1.6445963981    1.4411525998
N        1.0549092961    1.8879436229    2.3101940388
6    
Image 4/11, Energy =  -169.0418375589 (+6.706 kcal/mol)
C       -0.2413269852   -1.3425190936   -1.1816266394
C       -0.6022742572   -0.2951407473   -0.7323305636
H       -0.7596332677    0.6201868278   -0.2099303007
H        0.1345692264   -2.2564931336   -1.5244564528
C        0.3255814336    1.5889732237    1.4082431088
N        1.1430838501    1.6849929210    2.2401008456
6    
Image 5/11, Energy =  -169.0359662761 (+10.390 kcal/mol)
C       -0.2111965866   -1.2750751899   -1.1060341366
C       -0.6860756238   -0.2352322195   -0.7595971572
H       -0.9561479019    0.6913095240   -0.3266778806
H        0.2891393953   -2.1664038339   -1.3265930706
C        0.3578783224    1.4836380003    1.3561777826
N        1.2064023945    1.5017637164    2.1627244608
6    
Image 6/11, Energy =  -169.0276800464 (+15.590 kcal/mol)
C       -0.1956926018   -1.2008836139   -1.0376428055
C       -0.7342822918   -0.1728110123   -0.7568736592
H       -1.1330770940    0.7443049946   -0.4384259762
H        0.4221455016   -2.0396719970   -1.1198951606
C        0.4007479362    1.3227636438    1.2688730843
N        1.2401585500    1.3462979819    2.0839645160
6    
Image 7/11, Energy =  -169.0118343012 (+25.533 kcal/mol)
C       -0.2107830405   -1.1406428415   -1.0048367087
C       -0.7114997422   -0.0945233662   -0.6830206883
H       -1.2656761986    0.7749512464   -0.5285290523
H        0.5207659580   -1.8860260994   -0.9244002921
C        0.4386466958    1.1118674717    1.1448781239
N        1.2285463274    1.2343735858    1.9959086166
6    
Image 8/11, Energy =  -168.9962095793 (+35.338 kcal/mol)
C       -0.2521019216   -1.1071226275   -1.0124975309
C       -0.6147170212    0.0007661401   -0.5348183990
H       -1.3285274040    0.7771610090   -0.5801573270
H        0.5733092210   -1.7452323601   -0.7799517125
C        0.4535629690    0.9029222431    1.0129923891
N        1.1684741569    1.1715055918    1.8944325795
6    
Image 9/11, Energy =  -169.0185482310 (+21.320 kcal/mol)
C       -0.2719627398   -1.0757315516   -1.0098526822
C       -0.5069209460    0.0856170793   -0.3812101237
H       -1.3135117768    0.7752543906   -0.5708757659
H        0.5941012364   -1.6770995739   -0.7120045114
C        0.4053044921    0.7756592141    0.8955908008
N        1.0929897341    1.1163004375    1.7783522805
6    
Image 10/11, Energy =  -169.0437609544 (+5.499 kcal/mol)
C       -0.2721093513   -1.0384613434   -0.9953339881
C       -0.4664498990    0.1336943575   -0.3047184047
H       -1.3026915424    0.8069996864   -0.5503883163
H        0.6404231461   -1.5232274468   -0.5526624607
C        0.3524169885    0.6272448767    0.7650856657
N        1.0484106581    0.9937498643    1.6380174988
