6    
Image 0/11, Energy =  -169.0522692293 (+0.138 kcal/mol)
C       -0.3689809232   -1.4576547332   -1.3858823910
C       -0.1536196575   -0.5941379364   -0.5627748996
H        0.0498937432    0.2058682499    0.1931202386
H       -0.5557149982   -2.2230003307   -2.1042277546
C        0.4068909404    1.6172446315    1.5286738868
N        0.6215308952    2.4516801189    2.3310909145
6    
Image 1/11, Energy =  -169.0524897738 (+0.000 kcal/mol)
C       -0.3403777057   -1.4502753859   -1.3516409018
C       -0.2718689169   -0.5120726923   -0.6085370445
H       -0.1539871708    0.3115969441    0.0908871129
H       -0.3828192441   -2.2801347844   -1.9916894852
C        0.3544822838    1.6454367909    1.4950231437
N        0.7945707536    2.2854491270    2.3659571707
6    
Image 2/11, Energy =  -169.0501119485 (+1.492 kcal/mol)
C       -0.3095770952   -1.4311960829   -1.3090784280
C       -0.3895584837   -0.4332544553   -0.6523307237
H       -0.3545364019    0.4265421360   -0.0001145911
H       -0.2075504696   -2.3138819320   -1.8622250840
C        0.3207987547    1.6587992518    1.4671189020
N        0.9404236956    2.0929910814    2.3566299214
6    
Image 3/11, Energy =  -169.0464713850 (+3.777 kcal/mol)
C       -0.2752825585   -1.3943996867   -1.2498240920
C       -0.5017762954   -0.3584152938   -0.6957152231
H       -0.5590219464    0.5332031188   -0.1012516975
H       -0.0312348474   -2.3059278295   -1.7017485872
C        0.3099956346    1.6435625262    1.4408782457
N        1.0573200130    1.8819771634    2.3076613514
6    
Image 4/11, Energy =  -169.0417614256 (+6.732 kcal/mol)
C       -0.2407230408   -1.3413763330   -1.1802673390
C       -0.6030467265   -0.2934430662   -0.7333481455
H       -0.7619237008    0.6220444743   -0.2118697678
H        0.1366715000   -2.2555569609   -1.5208412030
C        0.3241233218    1.5877179668    1.4086857055
N        1.1448986462    1.6806139169    2.2376407478
6    
Image 5/11, Energy =  -169.0359060006 (+10.406 kcal/mol)
C       -0.2108739012   -1.2740172123   -1.1052398342
C       -0.6866323626   -0.2340248371   -0.7605012772
H       -0.9580596343    0.6925403896   -0.3285787428
H        0.2907512249   -2.1652622298   -1.3233462660
C        0.3568034730    1.4824105436    1.3569974599
N        1.2080112001    1.4983533434    2.1606686586
6    
Image 6/11, Energy =  -169.0276032925 (+15.617 kcal/mol)
C       -0.1955620385   -1.1999096393   -1.0371038117
C       -0.7346458197   -0.1718241502   -0.7572998022
H       -1.1347029940    0.7451697216   -0.4401668784
H        0.4235361627   -2.0380730804   -1.1167922559
C        0.3998649944    1.3212390539    1.2691748940
N        1.2415096951    1.3433980914    2.0821878530
6    
Image 7/11, Energy =  -169.0117672058 (+25.554 kcal/mol)
C       -0.2107648267   -1.1403466489   -1.0046211771
C       -0.7113721834   -0.0941261674   -0.6826533811
H       -1.2660465171    0.7751886721   -0.5290650047
H        0.5211506367   -1.8853425194   -0.9235330531
C        0.4382141806    1.1110508460    1.1446076026
N        1.2288187098    1.2335758143    1.9952650124
6    
Image 8/11, Energy =  -168.9962095793 (+35.316 kcal/mol)
C       -0.2521019216   -1.1071226275   -1.0124975309
C       -0.6147170212    0.0007661401   -0.5348183990
H       -1.3285274040    0.7771610090   -0.5801573270
H        0.5733092210   -1.7452323601   -0.7799517125
C        0.4535629690    0.9029222431    1.0129923891
N        1.1684741569    1.1715055918    1.8944325795
6    
Image 9/11, Energy =  -169.0185482310 (+21.299 kcal/mol)
C       -0.2719627398   -1.0757315516   -1.0098526822
C       -0.5069209460    0.0856170793   -0.3812101237
H       -1.3135117768    0.7752543906   -0.5708757659
H        0.5941012364   -1.6770995739   -0.7120045114
C        0.4053044921    0.7756592141    0.8955908008
N        1.0929897341    1.1163004375    1.7783522805
6    
Image 10/11, Energy =  -169.0437609544 (+5.477 kcal/mol)
C       -0.2721093513   -1.0384613434   -0.9953339881
C       -0.4664498990    0.1336943575   -0.3047184047
H       -1.3026915424    0.8069996864   -0.5503883163
H        0.6404231461   -1.5232274468   -0.5526624607
C        0.3524169885    0.6272448767    0.7650856657
N        1.0484106581    0.9937498643    1.6380174988
