6    
Image 0/11, Energy =  -169.0522692291 (+0.398 kcal/mol)
C       -0.3689809232   -1.4576547332   -1.3858823910
C       -0.1536196575   -0.5941379364   -0.5627748996
H        0.0498937432    0.2058682499    0.1931202386
H       -0.5557149982   -2.2230003307   -2.1042277546
C        0.4068909404    1.6172446315    1.5286738868
N        0.6215308952    2.4516801189    2.3310909145
6    
Image 1/11, Energy =  -169.0529040743 (+0.000 kcal/mol)
C       -0.3438333234   -1.4592293887   -1.3595207135
C       -0.2646678006   -0.5258608188   -0.6110797843
H       -0.1456133710    0.2959853469    0.0878725316
H       -0.3961419626   -2.2833080661   -2.0080672334
C        0.3502949913    1.6668588886    1.5113136828
N        0.7999614661    2.3055540379    2.3794815131
6    
Image 2/11, Energy =  -169.0507407805 (+1.357 kcal/mol)
C       -0.3130609595   -1.4426574366   -1.3179247941
C       -0.3754548696   -0.4482873228   -0.6526392630
H       -0.3396375570    0.4128039121   -0.0016962374
H       -0.2282958134   -2.3221374417   -1.8829203435
C        0.3040258048    1.6956946681    1.4866050279
N        0.9524233943    2.1045836199    2.3685756079
6    
Image 3/11, Energy =  -169.0473946521 (+3.457 kcal/mol)
C       -0.2788641218   -1.4068698280   -1.2602110321
C       -0.4837236610   -0.3724172153   -0.6930468806
H       -0.5391649346    0.5209936769   -0.0991586539
H       -0.0557524575   -2.3194257969   -1.7256947547
C        0.2859113304    1.6957238022    1.4659620684
N        1.0715938443    1.8819953596    2.3121492518
6    
Image 4/11, Energy =  -169.0429502720 (+6.246 kcal/mol)
C       -0.2420227756   -1.3535032692   -1.1888594645
C       -0.5873791735   -0.3020972368   -0.7343331672
H       -0.7466432464    0.6153931479   -0.2136217408
H        0.1152345940   -2.2744090847   -1.5393006105
C        0.2979127382    1.6542010734    1.4436116754
N        1.1628978631    1.6604153673    2.2325033075
6    
Image 5/11, Energy =  -169.0374114593 (+9.722 kcal/mol)
C       -0.2072313901   -1.2821726724   -1.1071689669
C       -0.6802940706   -0.2376321498   -0.7703756501
H       -0.9556734003    0.6919537804   -0.3432124761
H        0.2774151008   -2.1842108515   -1.3287355452
C        0.3341495162    1.5530937607    1.4014884012
N        1.2316342439    1.4589681298    2.1480042379
6    
Image 6/11, Energy =  -169.0296834870 (+14.571 kcal/mol)
C       -0.1858767382   -1.1974052830   -1.0248996558
C       -0.7457077237   -0.1716455797   -0.7784490671
H       -1.1432424977    0.7511156672   -0.4655848027
H        0.4227611284   -2.0457398491   -1.1018675154
C        0.3824304884    1.3752846064    1.3055819915
N        1.2696353428    1.2883904349    2.0652190508
6    
Image 7/11, Energy =  -169.0138366629 (+24.515 kcal/mol)
C       -0.2011698010   -1.1310698456   -0.9896265932
C       -0.7294794473   -0.0897199831   -0.7076623733
H       -1.2774204089    0.7869046251   -0.5596833449
H        0.5259857781   -1.8789872551   -0.8903402891
C        0.4232556767    1.1289991416    1.1661187010
N        1.2588282024    1.1838733134    1.9811939012
6    
Image 8/11, Energy =  -168.9961774000 (+35.597 kcal/mol)
C       -0.2504075079   -1.1026246590   -1.0116460597
C       -0.6169743868    0.0073780110   -0.5403120235
H       -1.3248942154    0.7883305321   -0.6013570274
H        0.5686221942   -1.7399190212   -0.7533990473
C        0.4404998150    0.9005076335    1.0207443360
N        1.1831541008    1.1463274999    1.8859698238
6    
Image 9/11, Energy =  -169.0167555186 (+22.684 kcal/mol)
C       -0.2705568439   -1.0735667373   -1.0106192403
C       -0.5088428811    0.0878770576   -0.3873246766
H       -1.3085985744    0.7818401171   -0.5896813053
H        0.5834274084   -1.6879070136   -0.7048364375
C        0.4009586570    0.7806836710    0.9089299379
N        1.1036122341    1.1110729011    1.7835317227
6    
Image 10/11, Energy =  -169.0437609545 (+5.737 kcal/mol)
C       -0.2721093513   -1.0384613434   -0.9953339881
C       -0.4664498990    0.1336943575   -0.3047184047
H       -1.3026915424    0.8069996864   -0.5503883163
H        0.6404231461   -1.5232274468   -0.5526624607
C        0.3524169885    0.6272448767    0.7650856657
N        1.0484106581    0.9937498643    1.6380174988
