6    
Image 0/11, Energy =  -169.0522692293 (+0.000 kcal/mol)
C       -0.3689809232   -1.4576547332   -1.3858823910
C       -0.1536196575   -0.5941379364   -0.5627748996
H        0.0498937432    0.2058682499    0.1931202386
H       -0.5557149982   -2.2230003307   -2.1042277546
C        0.4068909404    1.6172446315    1.5286738868
N        0.6215308952    2.4516801189    2.3310909145
6    
Image 1/11, Energy =  -169.0519705731 (+0.187 kcal/mol)
C       -0.3629149443   -1.4489302769   -1.3545518565
C       -0.2749178160   -0.5263394357   -0.5985076137
H       -0.1173401772    0.2818421351    0.1032890496
H       -0.3977237961   -2.2489306992   -2.0195357338
C        0.4433895889    1.5614982500    1.5406423910
N        0.7095071447    2.3808600282    2.3286637621
6    
Image 2/11, Energy =  -169.0484130809 (+2.420 kcal/mol)
C       -0.3381683684   -1.4326387944   -1.3318398559
C       -0.3935645005   -0.4696248982   -0.6291773178
H       -0.3036752150    0.3672466233    0.0369220830
H       -0.2481071694   -2.2726635674   -1.9387109357
C        0.4889275022    1.4849847332    1.5481039955
N        0.7945877512    2.3226959016    2.3147020308
6    
Image 3/11, Energy =  -169.0438545560 (+5.280 kcal/mol)
C       -0.3017369606   -1.3995153526   -1.2986492333
C       -0.4929951041   -0.4140380251   -0.6504924711
H       -0.5254426747    0.4552201214   -0.0306483629
H       -0.0894510732   -2.2742287965   -1.8222790925
C        0.5232658968    1.4235388499    1.5030728642
N        0.8863599158    2.2090232020    2.2989962955
6    
Image 4/11, Energy =  -169.0387220070 (+8.501 kcal/mol)
C       -0.2648262136   -1.3545513718   -1.2290952517
C       -0.5654963763   -0.3448376445   -0.6841735537
H       -0.7403760729    0.5537869193   -0.1450359671
H        0.0669135984   -2.2487161947   -1.6467600743
C        0.5052919124    1.4024405708    1.4153666866
N        0.9984931507    1.9918777208    2.2896981602
6    
Image 5/11, Energy =  -169.0325712894 (+12.361 kcal/mol)
C       -0.2303113040   -1.2982273333   -1.1434674663
C       -0.6320464304   -0.2665761536   -0.7027646234
H       -0.9595966283    0.6284435985   -0.2877604002
H        0.2266131174   -2.1727156494   -1.4376504405
C        0.4914682046    1.3717476276    1.3222031891
N        1.1038730379    1.7373279101    2.2494397412
6    
Image 6/11, Energy =  -169.0253814470 (+16.872 kcal/mol)
C       -0.2062214235   -1.2273687542   -1.0544300768
C       -0.6817628003   -0.2031237713   -0.6937901129
H       -1.1299604275    0.6794962955   -0.4059682289
H        0.3630677303   -2.0631508363   -1.2407184625
C        0.4898524450    1.3191786330    1.2238666808
N        1.1650244749    1.4949684331    2.1710401993
6    
Image 7/11, Energy =  -169.0138482181 (+24.110 kcal/mol)
C       -0.2039749170   -1.1567531763   -0.9595664680
C       -0.6895712277   -0.1267815169   -0.6482848499
H       -1.2416736261    0.7346694320   -0.5046408281
H        0.4826359303   -1.9268275643   -1.0409244076
C        0.4772186261    1.2291562728    1.1033770613
N        1.1753652143    1.2465365511    2.0500394911
6    
Image 8/11, Energy =  -168.9942038540 (+36.437 kcal/mol)
C       -0.2322402218   -1.0990406865   -0.9106953189
C       -0.6297799975   -0.0189407088   -0.5343488733
H       -1.3013192295    0.7801427073   -0.5846294910
H        0.5760780503   -1.7730095483   -0.8367973515
C        0.4402407775    1.0598415265    0.9615678120
N        1.1470206210    1.0510067066    1.9049032247
6    
Image 9/11, Energy =  -169.0213162874 (+19.423 kcal/mol)
C       -0.2710568452   -1.0739582610   -0.9390171839
C       -0.5029845277    0.1174875832   -0.3572809088
H       -1.3080993066    0.7863461304   -0.5973285028
H        0.6169003055   -1.6707356979   -0.7101242931
C        0.3861647600    0.8261968660    0.8356448192
N        1.0790756139    1.0146633757    1.7681060705
6    
Image 10/11, Energy =  -169.0437609544 (+5.339 kcal/mol)
C       -0.2721093513   -1.0384613434   -0.9953339881
C       -0.4664498990    0.1336943575   -0.3047184047
H       -1.3026915424    0.8069996864   -0.5503883163
H        0.6404231461   -1.5232274468   -0.5526624607
C        0.3524169885    0.6272448767    0.7650856657
N        1.0484106581    0.9937498643    1.6380174988
