6    
Image 0/11, Energy =  -169.0522692293 (+0.129 kcal/mol)
C       -0.3689809232   -1.4576547332   -1.3858823910
C       -0.1536196575   -0.5941379364   -0.5627748996
H        0.0498937432    0.2058682499    0.1931202386
H       -0.5557149982   -2.2230003307   -2.1042277546
C        0.4068909404    1.6172446315    1.5286738868
N        0.6215308952    2.4516801189    2.3310909145
6    
Image 1/11, Energy =  -169.0524749744 (+0.000 kcal/mol)
C       -0.3402222744   -1.4500576749   -1.3513617247
C       -0.2723228674   -0.5114427257   -0.6087355485
H       -0.1546167333    0.3123568359    0.0904543792
H       -0.3821404311   -2.2802786080   -1.9908571370
C        0.3540974095    1.6450748676    1.4947917233
N        0.7952048967    2.2843473045    2.3657083034
6    
Image 2/11, Energy =  -169.0500279182 (+1.536 kcal/mol)
C       -0.3086348689   -1.4300634107   -1.3073015087
C       -0.3909729495   -0.4305997679   -0.6533335540
H       -0.3574084965    0.4300745683   -0.0023770980
H       -0.2047053200   -2.3140186620   -1.8578891899
C        0.3183042364    1.6581351584    1.4660832568
N        0.9434173985    2.0864721128    2.3548180905
6    
Image 3/11, Energy =  -169.0464268432 (+3.795 kcal/mol)
C       -0.2748436072   -1.3937797165   -1.2490073618
C       -0.5024073761   -0.3573636776   -0.6961967915
H       -0.5604336766    0.5345809104   -0.1024512206
H       -0.0298909293   -2.3056229666   -1.6996561977
C        0.3090599260    1.6429831658    1.4409427648
N        1.0585156631    1.8792022829    2.3063688042
6    
Image 4/11, Energy =  -169.0416686839 (+6.781 kcal/mol)
C       -0.2400029647   -1.3399785114   -1.1787012365
C       -0.6040232861   -0.2914318338   -0.7346506189
H       -0.7649375162    0.6242416929   -0.2143639007
H        0.1392882240   -2.2544220232   -1.5163904228
C        0.3225185853    1.5862591085    1.4093514604
N        1.1471569576    1.6753315649    2.2347547163
6    
Image 5/11, Energy =  -169.0358718267 (+10.419 kcal/mol)
C       -0.2106910406   -1.2734372402   -1.1048033542
C       -0.6868881962   -0.2333205781   -0.7610309569
H       -0.9592686108    0.6931761363   -0.3296302576
H        0.2916085638   -2.1646468728   -1.3215147206
C        0.3564271237    1.4818330903    1.3573008408
N        1.2088121601    1.4963954618    2.1596784469
6    
Image 6/11, Energy =  -169.0275261103 (+15.656 kcal/mol)
C       -0.1953506980   -1.1989519087   -1.0364669117
C       -0.7349787289   -0.1708579013   -0.7576146718
H       -1.1362726315    0.7460125380   -0.4417725794
H        0.4248498242   -2.0365678929   -1.1139177336
C        0.3991216548    1.3197407271    1.2693385902
N        1.2426305794    1.3406244348    2.0804333050
6    
Image 7/11, Energy =  -169.0117097271 (+25.581 kcal/mol)
C       -0.2107205395   -1.1400581656   -1.0043516534
C       -0.7112708018   -0.0937477662   -0.6823457809
H       -1.2664730784    0.7754134473   -0.5296079024
H        0.5215253114   -1.8847498891   -0.9227797203
C        0.4379175549    1.1103197340    1.1444802601
N        1.2290215534    1.2328226363    1.9946047960
6    
Image 8/11, Energy =  -168.9962095793 (+35.307 kcal/mol)
C       -0.2521019216   -1.1071226275   -1.0124975309
C       -0.6147170212    0.0007661401   -0.5348183990
H       -1.3285274040    0.7771610090   -0.5801573270
H        0.5733092210   -1.7452323601   -0.7799517125
C        0.4535629690    0.9029222431    1.0129923891
N        1.1684741569    1.1715055918    1.8944325795
6    
Image 9/11, Energy =  -169.0185482310 (+21.289 kcal/mol)
C       -0.2719627398   -1.0757315516   -1.0098526822
C       -0.5069209460    0.0856170793   -0.3812101237
H       -1.3135117768    0.7752543906   -0.5708757659
H        0.5941012364   -1.6770995739   -0.7120045114
C        0.4053044921    0.7756592141    0.8955908008
N        1.0929897341    1.1163004375    1.7783522805
6    
Image 10/11, Energy =  -169.0437609544 (+5.468 kcal/mol)
C       -0.2721093513   -1.0384613434   -0.9953339881
C       -0.4664498990    0.1336943575   -0.3047184047
H       -1.3026915424    0.8069996864   -0.5503883163
H        0.6404231461   -1.5232274468   -0.5526624607
C        0.3524169885    0.6272448767    0.7650856657
N        1.0484106581    0.9937498643    1.6380174988
