6    
Image 0/11, Energy =  -169.0522692293 (+0.327 kcal/mol)
C       -0.3689809232   -1.4576547332   -1.3858823910
C       -0.1536196575   -0.5941379364   -0.5627748996
H        0.0498937432    0.2058682499    0.1931202386
H       -0.5557149982   -2.2230003307   -2.1042277546
C        0.4068909404    1.6172446315    1.5286738868
N        0.6215308952    2.4516801189    2.3310909145
6    
Image 1/11, Energy =  -169.0527898883 (+0.000 kcal/mol)
C       -0.3460955846   -1.4541152526   -1.3597324628
C       -0.2716437198   -0.5248148253   -0.6064920910
H       -0.1454618414    0.2916485221    0.1001027176
H       -0.3906093842   -2.2757892225   -2.0117101362
C        0.3758817638    1.6409870454    1.5094211625
N        0.7779287660    2.3220837329    2.3684108060
6    
Image 2/11, Energy =  -169.0507101046 (+1.305 kcal/mol)
C       -0.3192777017   -1.4405428204   -1.3253135876
C       -0.3868286601   -0.4551828181   -0.6472578362
H       -0.3382689289    0.3944897868    0.0165811835
H       -0.2237232284   -2.3109801988   -1.8991990290
C        0.3528511231    1.6520196285    1.4833357930
N        0.9152473956    2.1601964215    2.3718534737
6    
Image 3/11, Energy =  -169.0474455791 (+3.354 kcal/mol)
C       -0.2880273711   -1.4104175111   -1.2748843582
C       -0.4955157795   -0.3891169693   -0.6858822941
H       -0.5320967958    0.4932949111   -0.0750101107
H       -0.0577754535   -2.3104952441   -1.7571985165
C        0.3470069081    1.6421180460    1.4509930341
N        1.0264084912    1.9746167665    2.3419822437
6    
Image 4/11, Energy =  -169.0430211756 (+6.130 kcal/mol)
C       -0.2552292318   -1.3634220802   -1.2089341997
C       -0.5941902334   -0.3249916409   -0.7217666497
H       -0.7271898848    0.5835634022   -0.1785414954
H        0.1045309138   -2.2709355884   -1.5857635306
C        0.3596058232    1.5993850077    1.4087504153
N        1.1124726125    1.7764008983    2.2862554590
6    
Image 5/11, Energy =  -169.0371841505 (+9.793 kcal/mol)
C       -0.2246286955   -1.2976712627   -1.1304713860
C       -0.6789491232   -0.2603348423   -0.7497660441
H       -0.9249549566    0.6630641049   -0.2944491860
H        0.2623468816   -2.1873708914   -1.3839088636
C        0.3891557026    1.5082308777    1.3479726044
N        1.1770301908    1.5740820118    2.2106228746
6    
Image 6/11, Energy =  -169.0286310289 (+15.160 kcal/mol)
C       -0.2050459183   -1.2167079237   -1.0519577634
C       -0.7323430100   -0.1885847293   -0.7513627650
H       -1.1150718543    0.7294426929   -0.4160827090
H        0.4086598331   -2.0556607574   -1.1538839488
C        0.4256653996    1.3524191987    1.2562884400
N        1.2181355498    1.3790915162    2.1169987455
6    
Image 7/11, Energy =  -169.0122319013 (+25.451 kcal/mol)
C       -0.2153283338   -1.1466694773   -1.0076589000
C       -0.7117116749   -0.1000192164   -0.6819330577
H       -1.2621480953    0.7698168508   -0.5195245817
H        0.5199031596   -1.8882304474   -0.9310224684
C        0.4516379947    1.1324190994    1.1321214960
N        1.2176469497    1.2326831877    2.0080175109
6    
Image 8/11, Energy =  -168.9961737866 (+35.527 kcal/mol)
C       -0.2534059080   -1.1080546065   -1.0111476221
C       -0.6127837885    0.0031803824   -0.5338914615
H       -1.3304130507    0.7759441957   -0.5787375583
H        0.5765988487   -1.7389369750   -0.7726994482
C        0.4533884527    0.9104391101    1.0036242248
N        1.1666154458    1.1574278898    1.8928518645
6    
Image 9/11, Energy =  -169.0201468591 (+20.484 kcal/mol)
C       -0.2717383588   -1.0743616277   -1.0070216032
C       -0.5025800227    0.0905016499   -0.3773404936
H       -1.3145065058    0.7751989862   -0.5695873174
H        0.5964315206   -1.6743733588   -0.7068735633
C        0.4036704483    0.7753002779    0.8866612829
N        1.0887229184    1.1077340685    1.7741616927
6    
Image 10/11, Energy =  -169.0437609544 (+5.666 kcal/mol)
C       -0.2721093513   -1.0384613434   -0.9953339881
C       -0.4664498990    0.1336943575   -0.3047184047
H       -1.3026915424    0.8069996864   -0.5503883163
H        0.6404231461   -1.5232274468   -0.5526624607
C        0.3524169885    0.6272448767    0.7650856657
N        1.0484106581    0.9937498643    1.6380174988
