6    
Image 0/11, Energy =  -169.0522692293 (+0.000 kcal/mol)
C       -0.3689809232   -1.4576547332   -1.3858823910
C       -0.1536196575   -0.5941379364   -0.5627748996
H        0.0498937432    0.2058682499    0.1931202386
H       -0.5557149982   -2.2230003307   -2.1042277546
C        0.4068909404    1.6172446315    1.5286738868
N        0.6215308952    2.4516801189    2.3310909145
6    
Image 1/11, Energy =  -169.0455110584 (+4.241 kcal/mol)
C       -0.3590592467   -1.4496956607   -1.3794754859
C       -0.3124977176   -0.5340904384   -0.5446180310
H       -0.0745347550    0.3274769890    0.0932206469
H       -0.3952813997   -2.2697502894   -2.0325088396
C        0.4368263024    1.5579814699    1.5433766890
N        0.7045468166    2.3680779337    2.3200050203
6    
Image 2/11, Energy =  -169.0424398042 (+6.168 kcal/mol)
C       -0.3240622353   -1.4247572197   -1.3564493335
C       -0.4265550826   -0.4882611094   -0.5761760569
H       -0.2893112106    0.4183510756    0.0086256125
H       -0.2451646655   -2.2946208107   -1.9473468901
C        0.4983558294    1.4724329990    1.5766436462
N        0.7867373647    2.3168550611    2.2947030217
6    
Image 3/11, Energy =  -169.0411684160 (+6.966 kcal/mol)
C       -0.2982761937   -1.3939412167   -1.3221046517
C       -0.4937765396   -0.4227963981   -0.6225438086
H       -0.5339907875    0.4528587170   -0.0150048676
H       -0.0937797215   -2.2801604877   -1.8410450155
C        0.5619567225    1.4108111386    1.5292667432
N        0.8578665199    2.2332282464    2.2714316002
6    
Image 4/11, Energy =  -169.0264997129 (+16.171 kcal/mol)
C       -0.2807206597   -1.3722565082   -1.2668889014
C       -0.5237509133   -0.3187869474   -0.6229445229
H       -0.7522818041    0.5720383133   -0.1490790435
H        0.0666223062   -2.2593978315   -1.6469931894
C        0.5073606998    1.3891653482    1.4078975816
N        0.9827703706    1.9892376256    2.2780080757
6    
Image 5/11, Energy =  -169.0252222596 (+16.972 kcal/mol)
C       -0.2626049317   -1.3066023946   -1.1762835370
C       -0.5771351362   -0.2453988451   -0.6523099650
H       -0.9968515255    0.6668341340   -0.2907940129
H        0.2491025315   -2.2071134668   -1.4390627423
C        0.4951540357    1.3592441174    1.3235036799
N        1.0923350218    1.7330364551    2.2349465773
6    
Image 6/11, Energy =  -169.0160202113 (+22.747 kcal/mol)
C       -0.2497984124   -1.2460594843   -1.0820638603
C       -0.6183688012   -0.1734767382   -0.6661396642
H       -1.1907604793    0.7182987225   -0.3897534029
H        0.4038117063   -2.1125947960   -1.2522762545
C        0.5020902864    1.3079472723    1.2345244764
N        1.1530256998    1.5058850237    2.1557087051
6    
Image 7/11, Energy =  -169.0050875082 (+29.607 kcal/mol)
C       -0.2418817028   -1.1846683867   -0.9856933068
C       -0.6391158928   -0.1053316986   -0.6058875700
H       -1.2852485349    0.7735351187   -0.5008977895
H        0.5198785512   -1.9779518134   -1.0675120488
C        0.4857083780    1.2260078837    1.1192472702
N        1.1606592013    1.2684088958    2.0407434409
6    
Image 8/11, Energy =  -168.9892529756 (+39.543 kcal/mol)
C       -0.2528547309   -1.1272151310   -0.8895821378
C       -0.6187741720   -0.0025870539   -0.5064315167
H       -1.3329494232    0.8205879773   -0.5999805561
H        0.6232364413   -1.8000443023   -0.8589415290
C        0.4492967732    1.0866375273    0.9728882858
N        1.1320451115    1.0226209780    1.8820474581
6    
Image 9/11, Energy =  -169.0143713206 (+23.781 kcal/mol)
C       -0.2767796644   -1.0962201479   -0.8952199321
C       -0.5294402249    0.1236344639   -0.3761665358
H       -1.3138839491    0.8428925909   -0.6408245490
H        0.6626815577   -1.6450864060   -0.6672114570
C        0.3748290270    0.8429021311    0.8436206518
N        1.0825932537    0.9318773668    1.7358018225
6    
Image 10/11, Energy =  -169.0437609544 (+5.339 kcal/mol)
C       -0.2721093513   -1.0384613434   -0.9953339881
C       -0.4664498990    0.1336943575   -0.3047184047
H       -1.3026915424    0.8069996864   -0.5503883163
H        0.6404231461   -1.5232274468   -0.5526624607
C        0.3524169885    0.6272448767    0.7650856657
N        1.0484106581    0.9937498643    1.6380174988
