6    
Image 0/11, Energy =  -169.0522692293 (+0.266 kcal/mol)
C       -0.3689809232   -1.4576547332   -1.3858823910
C       -0.1536196575   -0.5941379364   -0.5627748996
H        0.0498937432    0.2058682499    0.1931202386
H       -0.5557149982   -2.2230003307   -2.1042277546
C        0.4068909404    1.6172446315    1.5286738868
N        0.6215308952    2.4516801189    2.3310909145
6    
Image 1/11, Energy =  -169.0526926605 (+0.000 kcal/mol)
C       -0.3429493627   -1.4533228129   -1.3563508277
C       -0.2705858618   -0.5205642700   -0.6063101256
H       -0.1472261482    0.2999021315    0.0952660949
H       -0.3892263889   -2.2775161456   -2.0037800612
C        0.3645141256    1.6463795834    1.5021864675
N        0.7854736358    2.3051215132    2.3689884480
6    
Image 2/11, Energy =  -169.0505107426 (+1.369 kcal/mol)
C       -0.3137024897   -1.4375610595   -1.3165247144
C       -0.3854269067   -0.4471331825   -0.6476055741
H       -0.3422150107    0.4092268168    0.0083651596
H       -0.2195850219   -2.3122550432   -1.8841201207
C        0.3330612473    1.6628469764    1.4736554099
N        0.9278681814    2.1248754914    2.3662298367
6    
Image 3/11, Energy =  -169.0471377846 (+3.486 kcal/mol)
C       -0.2810965338   -1.4046240561   -1.2619743188
C       -0.4947830202   -0.3765214741   -0.6881525031
H       -0.5398236722    0.5116719354   -0.0869417233
H       -0.0496657501   -2.3093232946   -1.7342376774
C        0.3238592128    1.6532697272    1.4448078811
N        1.0415097633    1.9255271610    2.3264983394
6    
Image 4/11, Energy =  -169.0425140131 (+6.387 kcal/mol)
C       -0.2467405202   -1.3531417819   -1.1930348063
C       -0.5962632385   -0.3093337251   -0.7263713338
H       -0.7422048997    0.6030317003   -0.1944609319
H        0.1177665084   -2.2645052031   -1.5548037043
C        0.3384579760    1.6022948149    1.4072441335
N        1.1289841738    1.7216541933    2.2614266413
6    
Image 5/11, Energy =  -169.0365110427 (+10.154 kcal/mol)
C       -0.2145765533   -1.2837072419   -1.1137691723
C       -0.6817663511   -0.2447715941   -0.7545602602
H       -0.9425334361    0.6803473777   -0.3121163995
H        0.2760620890   -2.1760718293   -1.3507501019
C        0.3695000871    1.4979281414    1.3499468812
N        1.1933141643    1.5262751439    2.1812490516
6    
Image 6/11, Energy =  -169.0279665997 (+15.516 kcal/mol)
C       -0.1956235358   -1.2050140190   -1.0393895050
C       -0.7327291408   -0.1779214137   -0.7526911430
H       -1.1252604607    0.7399658609   -0.4285558142
H        0.4154947032   -2.0470018979   -1.1351694270
C        0.4073438622    1.3312372854    1.2624100966
N        1.2307745718    1.3587341814    2.0933957916
6    
Image 7/11, Energy =  -169.0120441974 (+25.507 kcal/mol)
C       -0.2101984975   -1.1421635905   -1.0048151389
C       -0.7111710489   -0.0970132386   -0.6814379019
H       -1.2622683191    0.7736988359   -0.5244182596
H        0.5177851271   -1.8913228262   -0.9333230521
C        0.4407065974    1.1146887684    1.1439002683
N        1.2251461410    1.2421120477    2.0000940832
6    
Image 8/11, Energy =  -168.9962095793 (+35.444 kcal/mol)
C       -0.2521019216   -1.1071226275   -1.0124975309
C       -0.6147170212    0.0007661401   -0.5348183990
H       -1.3285274040    0.7771610090   -0.5801573270
H        0.5733092210   -1.7452323601   -0.7799517125
C        0.4535629690    0.9029222431    1.0129923891
N        1.1684741569    1.1715055918    1.8944325795
6    
Image 9/11, Energy =  -169.0185482310 (+21.426 kcal/mol)
C       -0.2719627398   -1.0757315516   -1.0098526822
C       -0.5069209460    0.0856170793   -0.3812101237
H       -1.3135117768    0.7752543906   -0.5708757659
H        0.5941012364   -1.6770995739   -0.7120045114
C        0.4053044921    0.7756592141    0.8955908008
N        1.0929897341    1.1163004375    1.7783522805
6    
Image 10/11, Energy =  -169.0437609544 (+5.605 kcal/mol)
C       -0.2721093513   -1.0384613434   -0.9953339881
C       -0.4664498990    0.1336943575   -0.3047184047
H       -1.3026915424    0.8069996864   -0.5503883163
H        0.6404231461   -1.5232274468   -0.5526624607
C        0.3524169885    0.6272448767    0.7650856657
N        1.0484106581    0.9937498643    1.6380174988
