6    
Image 0/11, Energy =  -169.0522692293 (+0.340 kcal/mol)
C       -0.3689809232   -1.4576547332   -1.3858823910
C       -0.1536196575   -0.5941379364   -0.5627748996
H        0.0498937432    0.2058682499    0.1931202386
H       -0.5557149982   -2.2230003307   -2.1042277546
C        0.4068909404    1.6172446315    1.5286738868
N        0.6215308952    2.4516801189    2.3310909145
6    
Image 1/11, Energy =  -169.0528111239 (+0.000 kcal/mol)
C       -0.3469565673   -1.4542586222   -1.3624452436
C       -0.2731065527   -0.5256270333   -0.6059541572
H       -0.1446116397    0.2876936582    0.1018706597
H       -0.3909970339   -2.2746196075   -2.0137169730
C        0.3816517772    1.6366011859    1.5130581668
N        0.7740200160    2.3302104187    2.3671875434
6    
Image 2/11, Energy =  -169.0507273325 (+1.308 kcal/mol)
C       -0.3207194238   -1.4397595592   -1.3284919960
C       -0.3901636910   -0.4586566641   -0.6473574984
H       -0.3362386824    0.3887465304    0.0197746628
H       -0.2245023114   -2.3095465093   -1.9039370079
C        0.3624434097    1.6436899299    1.4876481536
N        0.9091806985    2.1755262719    2.3723636833
6    
Image 3/11, Energy =  -169.0474720083 (+3.350 kcal/mol)
C       -0.2907189118   -1.4108820539   -1.2801682579
C       -0.4989060541   -0.3934905450   -0.6858787982
H       -0.5289258738    0.4862182059   -0.0712836384
H       -0.0593852913   -2.3095021315   -1.7635427811
C        0.3577598216    1.6329245775    1.4540200065
N        1.0201763088    1.9947319464    2.3468534676
6    
Image 4/11, Energy =  -169.0430878381 (+6.101 kcal/mol)
C       -0.2583095588   -1.3656425426   -1.2138449584
C       -0.5964602660   -0.3298353596   -0.7226938133
H       -0.7233585035    0.5760730214   -0.1732691280
H        0.1017738651   -2.2712851653   -1.5942965710
C        0.3694761193    1.5935299059    1.4092203761
N        1.1068783434    1.7971601391    2.2948840938
6    
Image 5/11, Energy =  -169.0373959208 (+9.673 kcal/mol)
C       -0.2267075471   -1.3017332487   -1.1349609502
C       -0.6795345687   -0.2660102522   -0.7500295453
H       -0.9180248290    0.6561333381   -0.2865142079
H        0.2569524781   -2.1912592927   -1.3962655771
C        0.3972813499    1.5093364819    1.3470598260
N        1.1700331163    1.5935329718    2.2207104541
6    
Image 6/11, Energy =  -169.0291331631 (+14.858 kcal/mol)
C       -0.2051669135   -1.2212630175   -1.0547501499
C       -0.7345592612   -0.1943499880   -0.7528290457
H       -1.1075055868    0.7247374562   -0.4081033588
H        0.4032668763   -2.0626987600   -1.1669094824
C        0.4322622599    1.3612002273    1.2552571638
N        1.2117026251    1.3923740795    2.1273348726
6    
Image 7/11, Energy =  -169.0127436312 (+25.143 kcal/mol)
C       -0.2155238972   -1.1484155129   -1.0072116011
C       -0.7161144702   -0.1023266577   -0.6858288667
H       -1.2632723138    0.7681283422   -0.5187660972
H        0.5204443860   -1.8885012514   -0.9315802868
C        0.4587151800    1.1406643971    1.1291059558
N        1.2157511151    1.2304506796    2.0142808953
6    
Image 8/11, Energy =  -168.9961617044 (+35.548 kcal/mol)
C       -0.2560654445   -1.1078404313   -1.0108823740
C       -0.6117562631    0.0070668536   -0.5322092635
H       -1.3364172597    0.7739435885   -0.5831575847
H        0.5809884998   -1.7271954725   -0.7600618224
C        0.4563788461    0.9100573731    0.9952226700
N        1.1668716214    1.1439680851    1.8910883738
6    
Image 9/11, Energy =  -169.0197668968 (+20.736 kcal/mol)
C       -0.2736748550   -1.0755978316   -1.0076882386
C       -0.5057172851    0.0912542003   -0.3814019846
H       -1.3194816498    0.7723656854   -0.5758644251
H        0.5997369277   -1.6624412647   -0.6945532971
C        0.4056422137    0.7783678903    0.8842814121
N        1.0934946485    1.0960513163    1.7752265313
6    
Image 10/11, Energy =  -169.0437609544 (+5.679 kcal/mol)
C       -0.2721093513   -1.0384613434   -0.9953339881
C       -0.4664498990    0.1336943575   -0.3047184047
H       -1.3026915424    0.8069996864   -0.5503883163
H        0.6404231461   -1.5232274468   -0.5526624607
C        0.3524169885    0.6272448767    0.7650856657
N        1.0484106581    0.9937498643    1.6380174988
