6    
Image 0/11, Energy =  -169.0522692293 (+0.811 kcal/mol)
C       -0.3689809232   -1.4576547332   -1.3858823910
C       -0.1536196575   -0.5941379364   -0.5627748996
H        0.0498937432    0.2058682499    0.1931202386
H       -0.5557149982   -2.2230003307   -2.1042277546
C        0.4068909404    1.6172446315    1.5286738868
N        0.6215308952    2.4516801189    2.3310909145
6    
Image 1/11, Energy =  -169.0535624052 (+0.000 kcal/mol)
C       -0.3542825421   -1.4793576211   -1.3907419281
C       -0.2639637534   -0.5633436341   -0.6216853218
H       -0.1382211455    0.2430324135    0.0886906121
H       -0.4177721512   -2.2892358747   -2.0583126805
C        0.3797012303    1.6911163850    1.5737833073
N        0.7945383574    2.3977883348    2.4082660112
6    
Image 2/11, Energy =  -169.0521169177 (+0.907 kcal/mol)
C       -0.3283727058   -1.4702638607   -1.3665836338
C       -0.3581068513   -0.5136886670   -0.6443046838
H       -0.3083372300    0.3214127075    0.0383983899
H       -0.2759923391   -2.3176790039   -1.9870022683
C        0.3295838613    1.7226196780    1.5589686609
N        0.9412252620    2.2575991447    2.4005235352
6    
Image 3/11, Energy =  -169.0501660971 (+2.131 kcal/mol)
C       -0.3036375736   -1.4481091747   -1.3223663469
C       -0.4224661141   -0.4512659167   -0.6678255518
H       -0.4320154114    0.4157710549   -0.0279373827
H       -0.1664085847   -2.3306740919   -1.8769009072
C        0.2921236575    1.7410387031    1.5259445778
N        1.0324040247    2.0732394251    2.3690856100
6    
Image 4/11, Energy =  -169.0461479549 (+4.653 kcal/mol)
C       -0.2637193098   -1.4022920625   -1.2428886686
C       -0.5246697116   -0.3647164290   -0.7042939423
H       -0.6377296162    0.5409458419   -0.1437079499
H        0.0093108878   -2.3167540026   -1.6826034697
C        0.2759313539    1.7620129458    1.4921989485
N        1.1408763968    1.7808037062    2.2812950806
6    
Image 5/11, Energy =  -169.0410179142 (+7.872 kcal/mol)
C       -0.2234269251   -1.3392436631   -1.1478837052
C       -0.6307751826   -0.2882872688   -0.7467933488
H       -0.8663351000    0.6431203948   -0.2914996358
H        0.1863903575   -2.2569890006   -1.4534855898
C        0.3163936759    1.7492863016    1.4681815041
N        1.2177531761    1.4921132352    2.1714807768
6    
Image 6/11, Energy =  -169.0356466358 (+11.242 kcal/mol)
C       -0.1931885821   -1.2573080502   -1.0487625307
C       -0.7225284547   -0.2169010160   -0.7922702637
H       -1.0778543217    0.7210416481   -0.4583675559
H        0.3334158276   -2.1519583856   -1.2077849146
C        0.3803922415    1.6655973015    1.4434710231
N        1.2797632941    1.2395285002    2.0637142509
6    
Image 7/11, Energy =  -169.0298036105 (+14.909 kcal/mol)
C       -0.1737220183   -1.1597266904   -0.9677405275
C       -0.7968307170   -0.1506072198   -0.8291165539
H       -1.2518172218    0.7714648667   -0.5994091417
H        0.4586002593   -1.9979519304   -0.9790352927
C        0.4163933272    1.4329366561    1.3713753397
N        1.3473763787    1.1038843154    2.0039261918
6    
Image 8/11, Energy =  -169.0163935897 (+23.324 kcal/mol)
C       -0.1898205533   -1.1092704926   -0.9567900446
C       -0.7647031278   -0.0785561146   -0.7519763498
H       -1.3033704490    0.8089839435   -0.6138242386
H        0.5305321946   -1.8615461461   -0.8315866355
C        0.4196512613    1.1380848277    1.1969554398
N        1.3077106819    1.1023039789    1.9572218445
6    
Image 9/11, Energy =  -168.9961629865 (+36.019 kcal/mol)
C       -0.2571961854   -1.0994872492   -1.0087893156
C       -0.6117593290    0.0175775264   -0.5443836912
H       -1.3055442470    0.8098758867   -0.6178179676
H        0.5452563811   -1.7526643648   -0.7387117246
C        0.4356139762    0.8946380072    1.0275766529
N        1.1936294129    1.1300601913    1.8821260626
6    
Image 10/11, Energy =  -169.0437609544 (+6.151 kcal/mol)
C       -0.2721093513   -1.0384613434   -0.9953339881
C       -0.4664498990    0.1336943575   -0.3047184047
H       -1.3026915424    0.8069996864   -0.5503883163
H        0.6404231461   -1.5232274468   -0.5526624607
C        0.3524169885    0.6272448767    0.7650856657
N        1.0484106581    0.9937498643    1.6380174988
