6    
Image 0/11, Energy =  -169.0522692293 (+0.817 kcal/mol)
C       -0.3689809232   -1.4576547332   -1.3858823910
C       -0.1536196575   -0.5941379364   -0.5627748996
H        0.0498937432    0.2058682499    0.1931202386
H       -0.5557149982   -2.2230003307   -2.1042277546
C        0.4068909404    1.6172446315    1.5286738868
N        0.6215308952    2.4516801189    2.3310909145
6    
Image 1/11, Energy =  -169.0535711884 (+0.000 kcal/mol)
C       -0.3537783919   -1.4819689461   -1.3932779150
C       -0.2630284157   -0.5670890634   -0.6234358602
H       -0.1394773722    0.2397942687    0.0862274285
H       -0.4199687698   -2.2914590983   -2.0614052743
C        0.3765018597    1.7009331730    1.5775723912
N        0.7997510944    2.3997896694    2.4143192346
6    
Image 2/11, Energy =  -169.0521426284 (+0.896 kcal/mol)
C       -0.3288484863   -1.4693159301   -1.3642982764
C       -0.3541553257   -0.5120633176   -0.6427672081
H       -0.3017130362    0.3242424422    0.0389456735
H       -0.2806154711   -2.3163021472   -1.9857118430
C        0.3271996779    1.7197795777    1.5557259257
N        0.9381326416    2.2536593709    2.3981057285
6    
Image 3/11, Energy =  -169.0503461538 (+2.024 kcal/mol)
C       -0.3055223502   -1.4502665536   -1.3257569802
C       -0.4171112730   -0.4557078444   -0.6659045274
H       -0.4216790369    0.4080858779   -0.0213230055
H       -0.1754500420   -2.3296864752   -1.8867670855
C        0.2937510031    1.7391784751    1.5283444484
N        1.0260116992    2.0883965179    2.3714071503
6    
Image 4/11, Energy =  -169.0461938633 (+4.629 kcal/mol)
C       -0.2644133877   -1.4023487504   -1.2432530795
C       -0.5203876651   -0.3648717369   -0.7022484250
H       -0.6326671791    0.5413283394   -0.1420218448
H        0.0054948924   -2.3175256088   -1.6837019728
C        0.2718993641    1.7658295670    1.4926594617
N        1.1400739769    1.7775881889    2.2785658612
6    
Image 5/11, Energy =  -169.0409762422 (+7.903 kcal/mol)
C       -0.2229332168   -1.3392556221   -1.1473317573
C       -0.6313198766   -0.2884205378   -0.7468143404
H       -0.8691829275    0.6430701387   -0.2931565246
H        0.1877865778   -2.2568420489   -1.4523212126
C        0.3164943802    1.7528525057    1.4699023372
N        1.2191550651    1.4885955622    2.1697215009
6    
Image 6/11, Energy =  -169.0357744798 (+11.168 kcal/mol)
C       -0.1938348991   -1.2601944255   -1.0509631736
C       -0.7213353492   -0.2195786753   -0.7914895505
H       -1.0755022509    0.7184096792   -0.4562484182
H        0.3302824723   -2.1556953295   -1.2138109927
C        0.3812496898    1.6751589488    1.4472649093
N        1.2791403393    1.2418997972    2.0652472357
6    
Image 7/11, Energy =  -169.0300556820 (+14.756 kcal/mol)
C       -0.1746262076   -1.1618769312   -0.9697552465
C       -0.7969155730   -0.1520885071   -0.8323128787
H       -1.2502757146    0.7706822282   -0.6017704602
H        0.4539610644   -2.0029524407   -0.9840520318
C        0.4159296152    1.4402414133    1.3828887204
N        1.3519268181    1.1059942307    2.0050019128
6    
Image 8/11, Energy =  -169.0179787253 (+22.335 kcal/mol)
C       -0.1865903803   -1.1122070100   -0.9559131420
C       -0.7703115971   -0.0856842734   -0.7612164159
H       -1.2974984074    0.8068076148   -0.6087043389
H        0.5249228974   -1.8748304799   -0.8461903572
C        0.4192609227    1.1593309999    1.2078725049
N        1.3102165663    1.1065831412    1.9641517647
6    
Image 9/11, Energy =  -168.9961997672 (+36.001 kcal/mol)
C       -0.2596314513   -1.1011216093   -1.0133134736
C       -0.6095563890    0.0152380064   -0.5438320948
H       -1.3018398107    0.8090018271   -0.6138350705
H        0.5407036835   -1.7580095681   -0.7468425181
C        0.4411702860    0.8895377965    1.0302505000
N        1.1891536842    1.1453535405    1.8875726733
6    
Image 10/11, Energy =  -169.0437609544 (+6.156 kcal/mol)
C       -0.2721093513   -1.0384613434   -0.9953339881
C       -0.4664498990    0.1336943575   -0.3047184047
H       -1.3026915424    0.8069996864   -0.5503883163
H        0.6404231461   -1.5232274468   -0.5526624607
C        0.3524169885    0.6272448767    0.7650856657
N        1.0484106581    0.9937498643    1.6380174988
