6    
Image 0/11, Energy =  -169.0522692293 (+0.817 kcal/mol)
C       -0.3689809232   -1.4576547332   -1.3858823910
C       -0.1536196575   -0.5941379364   -0.5627748996
H        0.0498937432    0.2058682499    0.1931202386
H       -0.5557149982   -2.2230003307   -2.1042277546
C        0.4068909404    1.6172446315    1.5286738868
N        0.6215308952    2.4516801189    2.3310909145
6    
Image 1/11, Energy =  -169.0535707734 (+0.000 kcal/mol)
C       -0.3535371402   -1.4841121560   -1.3950263962
C       -0.2619963367   -0.5699839855   -0.6244986781
H       -0.1399053099    0.2371911883    0.0844154800
H       -0.4218969065   -2.2927756516   -2.0639211625
C        0.3736414230    1.7085484910    1.5802120193
N        0.8036942706    2.4011321139    2.4188187380
6    
Image 2/11, Energy =  -169.0520985619 (+0.924 kcal/mol)
C       -0.3275201520   -1.4702692256   -1.3675707698
C       -0.3588637264   -0.5155037415   -0.6430034288
H       -0.3108746858    0.3197099580    0.0392680612
H       -0.2748582910   -2.3170523121   -1.9887196300
C        0.3260127166    1.7268905364    1.5604731263
N        0.9461041408    2.2562247844    2.3995526411
6    
Image 3/11, Energy =  -169.0504476790 (+1.960 kcal/mol)
C       -0.3061531407   -1.4526429204   -1.3287132015
C       -0.4143816335   -0.4602897657   -0.6651409205
H       -0.4181036507    0.4016673171   -0.0180991855
H       -0.1799658098   -2.3295080246   -1.8948053891
C        0.2938195347    1.7424131341    1.5324576890
N        1.0247846997    2.0983602581    2.3743010075
6    
Image 4/11, Energy =  -169.0461862530 (+4.634 kcal/mol)
C       -0.2636366323   -1.4032162237   -1.2440663588
C       -0.5238893584   -0.3659483951   -0.7047611523
H       -0.6370942782    0.5394716996   -0.1439063060
H        0.0078541001   -2.3175571204   -1.6850934457
C        0.2758604925    1.7632118265    1.4944556553
N        1.1409056727    1.7840382119    2.2833716065
6    
Image 5/11, Energy =  -169.0409384646 (+7.927 kcal/mol)
C       -0.2222163508   -1.3391461252   -1.1469881163
C       -0.6329972275   -0.2889522165   -0.7474169953
H       -0.8727185251    0.6423341176   -0.2945885227
H        0.1896814721   -2.2562527913   -1.4518689315
C        0.3183006033    1.7536528046    1.4704147700
N        1.2199500262    1.4883642074    2.1704477957
6    
Image 6/11, Energy =  -169.0358658533 (+11.110 kcal/mol)
C       -0.1946107110   -1.2621802150   -1.0523782197
C       -0.7199482860   -0.2211247347   -0.7910390833
H       -1.0729127186    0.7171604857   -0.4547433416
H        0.3273055260   -2.1587160048   -1.2177424754
C        0.3816592580    1.6819243962    1.4504408955
N        1.2785069315    1.2429360664    2.0654622350
6    
Image 7/11, Energy =  -169.0305774641 (+14.429 kcal/mol)
C       -0.1775247829   -1.1689395573   -0.9763861796
C       -0.7938643679   -0.1561209064   -0.8345188022
H       -1.2421015540    0.7685373746   -0.6000238009
H        0.4427934781   -2.0162140820   -0.9993330591
C        0.4141483399    1.4559323150    1.3998451788
N        1.3565488884    1.1168048492    2.0104166861
6    
Image 8/11, Energy =  -169.0188424072 (+21.792 kcal/mol)
C       -0.1847907167   -1.1126564749   -0.9543819001
C       -0.7737956425   -0.0883869233   -0.7676762021
H       -1.2964727494    0.8063545434   -0.6095333001
H        0.5231718474   -1.8794722427   -0.8497116910
C        0.4157367597    1.1699532833    1.2183403008
N        1.3161505036    1.1042078067    1.9629628131
6    
Image 9/11, Energy =  -168.9961832807 (+36.011 kcal/mol)
C       -0.2589747510   -1.1005381516   -1.0105552047
C       -0.6098571060    0.0165399837   -0.5429912446
H       -1.3025194618    0.8097788472   -0.6150267048
H        0.5422057224   -1.7567308415   -0.7443370561
C        0.4384063566    0.8930174900    1.0280259264
N        1.1907392414    1.1379326655    1.8848843072
6    
Image 10/11, Energy =  -169.0437609544 (+6.156 kcal/mol)
C       -0.2721093513   -1.0384613434   -0.9953339881
C       -0.4664498990    0.1336943575   -0.3047184047
H       -1.3026915424    0.8069996864   -0.5503883163
H        0.6404231461   -1.5232274468   -0.5526624607
C        0.3524169885    0.6272448767    0.7650856657
N        1.0484106581    0.9937498643    1.6380174988
