6    
Image 0/11, Energy =  -169.0522692293 (+0.249 kcal/mol)
C       -0.3689809232   -1.4576547332   -1.3858823910
C       -0.1536196575   -0.5941379364   -0.5627748996
H        0.0498937432    0.2058682499    0.1931202386
H       -0.5557149982   -2.2230003307   -2.1042277546
C        0.4068909404    1.6172446315    1.5286738868
N        0.6215308952    2.4516801189    2.3310909145
6    
Image 1/11, Energy =  -169.0526666383 (+0.000 kcal/mol)
C       -0.3425133388   -1.4529075452   -1.3555580496
C       -0.2704321170   -0.5194167266   -0.6066558234
H       -0.1479722241    0.3014917574    0.0948473165
H       -0.3886046735   -2.2778692339   -2.0021167514
C        0.3627350921    1.6465482498    1.5008110382
N        0.7867872611    2.3021534982    2.3686722657
6    
Image 2/11, Energy =  -169.0504201875 (+1.410 kcal/mol)
C       -0.3128079119   -1.4358631781   -1.3150438598
C       -0.3857593787   -0.4440401478   -0.6484675951
H       -0.3447632561    0.4131893774    0.0066485301
H       -0.2172452482   -2.3126799762   -1.8789874462
C        0.3302346962    1.6617668264    1.4720076420
N        0.9303410984    2.1176270976    2.3638427258
6    
Image 3/11, Energy =  -169.0469810889 (+3.568 kcal/mol)
C       -0.2795877830   -1.4016517479   -1.2600423908
C       -0.4962676540   -0.3726240167   -0.6888561095
H       -0.5440819982    0.5172406434   -0.0903586417
H       -0.0456491507   -2.3087917494   -1.7261813726
C        0.3205292800    1.6508417622    1.4432693965
N        1.0450573057    1.9149851073    2.3221691159
6    
Image 4/11, Energy =  -169.0423185162 (+6.494 kcal/mol)
C       -0.2450369947   -1.3498329471   -1.1901370471
C       -0.5979257114   -0.3054065178   -0.7271870900
H       -0.7469120594    0.6086179817   -0.1989818923
H        0.1224043612   -2.2624155827   -1.5459329370
C        0.3345358006    1.5983679334    1.4070739442
N        1.1329346035    1.7106691306    2.2551650205
6    
Image 5/11, Energy =  -169.0363458660 (+10.241 kcal/mol)
C       -0.2134041930   -1.2814202871   -1.1109284537
C       -0.6827036614   -0.2420962376   -0.7552905786
H       -0.9460349205    0.6837664911   -0.3157980575
H        0.2796965856   -2.1733534403   -1.3448601960
C        0.3657294152    1.4930324433    1.3512564966
N        1.1967167739    1.5200710282    2.1756207879
6    
Image 6/11, Energy =  -169.0279073091 (+15.537 kcal/mol)
C       -0.1955963318   -1.2038977543   -1.0387185882
C       -0.7332944228   -0.1764456682   -0.7543589849
H       -1.1274517324    0.7413831259   -0.4317145384
H        0.4173938657   -2.0450149204   -1.1309237124
C        0.4048819098    1.3285093516    1.2652116673
N        1.2340667114    1.3554658625    2.0905041556
6    
Image 7/11, Energy =  -169.0120423225 (+25.492 kcal/mol)
C       -0.2106498418   -1.1417833273   -1.0053542795
C       -0.7115288844   -0.0961020725   -0.6833026239
H       -1.2638085625    0.7739554959   -0.5260323118
H        0.5188555020   -1.8892723660   -0.9292539664
C        0.4399349206    1.1142238719    1.1449992974
N        1.2271968660    1.2389783947    1.9989438834
6    
Image 8/11, Energy =  -168.9962095793 (+35.427 kcal/mol)
C       -0.2521019216   -1.1071226275   -1.0124975309
C       -0.6147170212    0.0007661401   -0.5348183990
H       -1.3285274040    0.7771610090   -0.5801573270
H        0.5733092210   -1.7452323601   -0.7799517125
C        0.4535629690    0.9029222431    1.0129923891
N        1.1684741569    1.1715055918    1.8944325795
6    
Image 9/11, Energy =  -169.0185482310 (+21.410 kcal/mol)
C       -0.2719627398   -1.0757315516   -1.0098526822
C       -0.5069209460    0.0856170793   -0.3812101237
H       -1.3135117768    0.7752543906   -0.5708757659
H        0.5941012364   -1.6770995739   -0.7120045114
C        0.4053044921    0.7756592141    0.8955908008
N        1.0929897341    1.1163004375    1.7783522805
6    
Image 10/11, Energy =  -169.0437609544 (+5.588 kcal/mol)
C       -0.2721093513   -1.0384613434   -0.9953339881
C       -0.4664498990    0.1336943575   -0.3047184047
H       -1.3026915424    0.8069996864   -0.5503883163
H        0.6404231461   -1.5232274468   -0.5526624607
C        0.3524169885    0.6272448767    0.7650856657
N        1.0484106581    0.9937498643    1.6380174988
