6    
Image 0/11, Energy =  -169.0522692293 (+0.000 kcal/mol)
C       -0.3689809232   -1.4576547332   -1.3858823910
C       -0.1536196575   -0.5941379364   -0.5627748996
H        0.0498937432    0.2058682499    0.1931202386
H       -0.5557149982   -2.2230003307   -2.1042277546
C        0.4068909404    1.6172446315    1.5286738868
N        0.6215308952    2.4516801189    2.3310909145
6    
Image 1/11, Energy =  -169.0520552174 (+0.134 kcal/mol)
C       -0.3602045085   -1.4500407597   -1.3530028801
C       -0.2668365210   -0.5180738035   -0.6102463434
H       -0.1318263426    0.2709110042    0.1130247131
H       -0.3999071470   -2.2547205085   -2.0234759389
C        0.4445148866    1.5662850114    1.5412474138
N        0.7142596325    2.3856390564    2.3324530335
6    
Image 2/11, Energy =  -169.0489158990 (+2.104 kcal/mol)
C       -0.3399264087   -1.4355352454   -1.3270605066
C       -0.3855878526   -0.4568899055   -0.6445742544
H       -0.3134386414    0.3557106137    0.0518192920
H       -0.2456535020   -2.2775537714   -1.9386203767
C        0.4828471238    1.5034824496    1.5391784305
N        0.8017592809    2.3107858583    2.3192574150
6    
Image 3/11, Energy =  -169.0446322847 (+4.792 kcal/mol)
C       -0.3015753135   -1.4040335966   -1.2867206449
C       -0.4971270417   -0.4015056231   -0.6670945032
H       -0.5200260853    0.4547639177   -0.0356991659
H       -0.0856974333   -2.2795076343   -1.8153578297
C        0.5028944737    1.4460493910    1.4963672055
N        0.9015313998    2.1842335442    2.3085049381
6    
Image 4/11, Energy =  -169.0398188835 (+7.813 kcal/mol)
C       -0.2566140936   -1.3563738601   -1.2176836676
C       -0.5925567747   -0.3392649104   -0.7047077947
H       -0.7336422389    0.5469709495   -0.1443049529
H        0.0728710819   -2.2533970981   -1.6485702022
C        0.4977711904    1.4139654136    1.4161686052
N        1.0121708334    1.9880995051    2.2990980122
6    
Image 5/11, Energy =  -169.0344216602 (+11.200 kcal/mol)
C       -0.2169966287   -1.2980678017   -1.1334390924
C       -0.6663038554   -0.2713958935   -0.7242927208
H       -0.9444781361    0.6298431897   -0.2768659837
H        0.2290020235   -2.1809845440   -1.4454178341
C        0.4890156615    1.3845814192    1.3256117606
N        1.1097609334    1.7360236303    2.2544038701
6    
Image 6/11, Energy =  -169.0276534583 (+15.447 kcal/mol)
C       -0.1919584415   -1.2252619270   -1.0437134989
C       -0.7147073307   -0.2097583469   -0.7122804920
H       -1.1167864867    0.6945520267   -0.4004686761
H        0.3689926765   -2.0714372639   -1.2391423519
C        0.4884556922    1.3313802142    1.2277744525
N        1.1660038891    1.4805252964    2.1678305653
6    
Image 7/11, Energy =  -169.0159892420 (+22.766 kcal/mol)
C       -0.1927160406   -1.1546136294   -0.9599897246
C       -0.7139657091   -0.1266068402   -0.6637009677
H       -1.2404083905    0.7496119938   -0.5015146574
H        0.4918620759   -1.9296832865   -1.0232175127
C        0.4790906277    1.2297613502    1.1064496121
N        1.1761374364    1.2315304102    2.0419732505
6    
Image 8/11, Energy =  -168.9951528720 (+35.841 kcal/mol)
C       -0.2222906099   -1.1138392016   -0.9398146161
C       -0.6373969942   -0.0060456837   -0.5387108554
H       -1.3029472331    0.7775160694   -0.5734859336
H        0.5683965244   -1.7795583339   -0.8292475739
C        0.4495408368    1.0479738682    0.9757179457
N        1.1446974759    1.0739532788    1.9055410345
6    
Image 9/11, Energy =  -169.0201318350 (+20.167 kcal/mol)
C       -0.2679911430   -1.0691918751   -0.9619337271
C       -0.4938524185    0.1045560363   -0.3601221984
H       -1.3058744253    0.7684157208   -0.5755680769
H        0.5966387902   -1.6852831064   -0.7309281668
C        0.3977679611    0.8282975546    0.8536302016
N        1.0733112355    1.0532056656    1.7749219684
6    
Image 10/11, Energy =  -169.0437609544 (+5.339 kcal/mol)
C       -0.2721093513   -1.0384613434   -0.9953339881
C       -0.4664498990    0.1336943575   -0.3047184047
H       -1.3026915424    0.8069996864   -0.5503883163
H        0.6404231461   -1.5232274468   -0.5526624607
C        0.3524169885    0.6272448767    0.7650856657
N        1.0484106581    0.9937498643    1.6380174988
