6    
Image 0/11, Energy =  -169.0522692291 (+0.375 kcal/mol)
C       -0.3689809232   -1.4576547332   -1.3858823910
C       -0.1536196575   -0.5941379364   -0.5627748996
H        0.0498937432    0.2058682499    0.1931202386
H       -0.5557149982   -2.2230003307   -2.1042277546
C        0.4068909404    1.6172446315    1.5286738868
N        0.6215308952    2.4516801189    2.3310909145
6    
Image 1/11, Energy =  -169.0528662057 (+0.000 kcal/mol)
C       -0.3434199789   -1.4587224214   -1.3583666394
C       -0.2651761167   -0.5241842017   -0.6113047105
H       -0.1467006135    0.2985407403    0.0866634145
H       -0.3947347116   -2.2838489003   -2.0054977441
C        0.3484793909    1.6665685400    1.5096980229
N        0.8015520295    2.3016462427    2.3788076530
6    
Image 2/11, Energy =  -169.0506373229 (+1.399 kcal/mol)
C       -0.3118735228   -1.4412636136   -1.3157850236
C       -0.3777227050   -0.4446234352   -0.6542271807
H       -0.3440870004    0.4179400017   -0.0051356056
H       -0.2242554742   -2.3229612957   -1.8768354982
C        0.3018879438    1.6941972496    1.4856350223
N        0.9560507584    2.0967110919    2.3663482837
6    
Image 3/11, Energy =  -169.0472432559 (+3.528 kcal/mol)
C       -0.2772724532   -1.4049468296   -1.2578483428
C       -0.4869851391   -0.3687069969   -0.6957345182
H       -0.5462274859    0.5259798282   -0.1045553743
H       -0.0505229862   -2.3192110356   -1.7182344445
C        0.2847384115    1.6932383053    1.4671440935
N        1.0762696527    1.8736467270    2.3092285852
6    
Image 4/11, Energy =  -169.0427129073 (+6.371 kcal/mol)
C       -0.2398319370   -1.3503232849   -1.1857047060
C       -0.5913609336   -0.2978210220   -0.7386539285
H       -0.7578826075    0.6208508717   -0.2235085749
H        0.1219997640   -2.2723707483   -1.5284333059
C        0.2972434412    1.6504635353    1.4481507348
N        1.1698322728    1.6492006460    2.2281497804
6    
Image 5/11, Energy =  -169.0371625445 (+9.854 kcal/mol)
C       -0.2047157211   -1.2781258385   -1.1026715827
C       -0.6838499285   -0.2336575728   -0.7746363807
H       -0.9681231776    0.6962730505   -0.3553322654
H        0.2835902936   -2.1799029253   -1.3173049681
C        0.3346376788    1.5483484267    1.4058853333
N        1.2384608546    1.4470648564    2.1440598645
6    
Image 6/11, Energy =  -169.0294023682 (+14.724 kcal/mol)
C       -0.1847894519   -1.1933236223   -1.0213222702
C       -0.7482167712   -0.1682991877   -0.7803720828
H       -1.1511729189    0.7537852211   -0.4731232552
H        0.4279958653   -2.0393710227   -1.0910439262
C        0.3830169921    1.3689955472    1.3049951225
N        1.2731662846    1.2782130610    2.0608664133
6    
Image 7/11, Energy =  -169.0135949103 (+24.643 kcal/mol)
C       -0.2012319207   -1.1300113073   -0.9886952094
C       -0.7293732059   -0.0883280489   -0.7067099176
H       -1.2791903636    0.7876568730   -0.5614293548
H        0.5275197200   -1.8762708818   -0.8869365440
C        0.4234170330    1.1260886372    1.1643084009
N        1.2588587373    1.1808647241    1.9794626266
6    
Image 8/11, Energy =  -168.9961774000 (+35.573 kcal/mol)
C       -0.2504075079   -1.1026246590   -1.0116460597
C       -0.6169743868    0.0073780110   -0.5403120235
H       -1.3248942154    0.7883305321   -0.6013570274
H        0.5686221942   -1.7399190212   -0.7533990473
C        0.4404998150    0.9005076335    1.0207443360
N        1.1831541008    1.1463274999    1.8859698238
6    
Image 9/11, Energy =  -169.0167555186 (+22.660 kcal/mol)
C       -0.2705568439   -1.0735667373   -1.0106192403
C       -0.5088428811    0.0878770576   -0.3873246766
H       -1.3085985744    0.7818401171   -0.5896813053
H        0.5834274084   -1.6879070136   -0.7048364375
C        0.4009586570    0.7806836710    0.9089299379
N        1.1036122341    1.1110729011    1.7835317227
6    
Image 10/11, Energy =  -169.0437609545 (+5.714 kcal/mol)
C       -0.2721093513   -1.0384613434   -0.9953339881
C       -0.4664498990    0.1336943575   -0.3047184047
H       -1.3026915424    0.8069996864   -0.5503883163
H        0.6404231461   -1.5232274468   -0.5526624607
C        0.3524169885    0.6272448767    0.7650856657
N        1.0484106581    0.9937498643    1.6380174988
