6    
Image 0/11, Energy =  -169.0522692293 (+0.811 kcal/mol)
C       -0.3689809232   -1.4576547332   -1.3858823910
C       -0.1536196575   -0.5941379364   -0.5627748996
H        0.0498937432    0.2058682499    0.1931202386
H       -0.5557149982   -2.2230003307   -2.1042277546
C        0.4068909404    1.6172446315    1.5286738868
N        0.6215308952    2.4516801189    2.3310909145
6    
Image 1/11, Energy =  -169.0535624052 (+0.000 kcal/mol)
C       -0.3542825421   -1.4793576211   -1.3907419281
C       -0.2639637534   -0.5633436341   -0.6216853218
H       -0.1382211455    0.2430324135    0.0886906121
H       -0.4177721512   -2.2892358747   -2.0583126805
C        0.3797012303    1.6911163850    1.5737833073
N        0.7945383574    2.3977883348    2.4082660112
6    
Image 2/11, Energy =  -169.0521169177 (+0.907 kcal/mol)
C       -0.3283727058   -1.4702638607   -1.3665836338
C       -0.3581068513   -0.5136886670   -0.6443046838
H       -0.3083372300    0.3214127075    0.0383983899
H       -0.2759923391   -2.3176790039   -1.9870022683
C        0.3295838613    1.7226196780    1.5589686609
N        0.9412252620    2.2575991447    2.4005235352
6    
Image 3/11, Energy =  -169.0501692947 (+2.129 kcal/mol)
C       -0.3036116784   -1.4485139348   -1.3228365486
C       -0.4230159954   -0.4516223383   -0.6679748011
H       -0.4328320952    0.4150151445   -0.0279166666
H       -0.1659403214   -2.3306440792   -1.8776226118
C        0.2929463752    1.7409561004    1.5268427945
N        1.0324537136    2.0748091070    2.3695078327
6    
Image 4/11, Energy =  -169.0461479549 (+4.653 kcal/mol)
C       -0.2637193098   -1.4022920625   -1.2428886686
C       -0.5246697116   -0.3647164290   -0.7042939423
H       -0.6377296162    0.5409458419   -0.1437079499
H        0.0093108878   -2.3167540026   -1.6826034697
C        0.2759313539    1.7620129458    1.4921989485
N        1.1408763968    1.7808037062    2.2812950806
6    
Image 5/11, Energy =  -169.0410179142 (+7.872 kcal/mol)
C       -0.2234269251   -1.3392436631   -1.1478837052
C       -0.6307751826   -0.2882872688   -0.7467933488
H       -0.8663351000    0.6431203948   -0.2914996358
H        0.1863903575   -2.2569890006   -1.4534855898
C        0.3163936759    1.7492863016    1.4681815041
N        1.2177531761    1.4921132352    2.1714807768
6    
Image 6/11, Energy =  -169.0356421692 (+11.245 kcal/mol)
C       -0.1928806810   -1.2574564878   -1.0487481319
C       -0.7231339977   -0.2176754962   -0.7920491861
H       -1.0793331140    0.7200137001   -0.4582567003
H        0.3345718099   -2.1516026522   -1.2081329408
C        0.3819277189    1.6671152656    1.4423287294
N        1.2788482685    1.2396056686    2.0648582385
6    
Image 7/11, Energy =  -169.0297805777 (+14.923 kcal/mol)
C       -0.1734182144   -1.1591392506   -0.9664121592
C       -0.7977066600   -0.1506526505   -0.8289320624
H       -1.2539608962    0.7711830024   -0.6007486444
H        0.4600553711   -1.9965584915   -0.9766094348
C        0.4187693066    1.4358265744    1.3697446486
N        1.3462611010    1.0993408135    2.0029576677
6    
Image 8/11, Energy =  -169.0163987676 (+23.321 kcal/mol)
C       -0.1894348680   -1.1087507343   -0.9560312836
C       -0.7653210570   -0.0783665956   -0.7523196011
H       -1.3046376968    0.8088669864   -0.6146949624
H        0.5315589456   -1.8602390083   -0.8299568707
C        0.4196132305    1.1387103252    1.1968575971
N        1.3082214534    1.0997790233    1.9561451364
6    
Image 9/11, Energy =  -168.9961629865 (+36.019 kcal/mol)
C       -0.2571961854   -1.0994872492   -1.0087893156
C       -0.6117593290    0.0175775264   -0.5443836912
H       -1.3055442470    0.8098758867   -0.6178179676
H        0.5452563811   -1.7526643648   -0.7387117246
C        0.4356139762    0.8946380072    1.0275766529
N        1.1936294129    1.1300601913    1.8821260626
6    
Image 10/11, Energy =  -169.0437609544 (+6.151 kcal/mol)
C       -0.2721093513   -1.0384613434   -0.9953339881
C       -0.4664498990    0.1336943575   -0.3047184047
H       -1.3026915424    0.8069996864   -0.5503883163
H        0.6404231461   -1.5232274468   -0.5526624607
C        0.3524169885    0.6272448767    0.7650856657
N        1.0484106581    0.9937498643    1.6380174988
