6    
Image 0/11, Energy =  -169.0522692293 (+0.315 kcal/mol)
C       -0.3689809232   -1.4576547332   -1.3858823910
C       -0.1536196575   -0.5941379364   -0.5627748996
H        0.0498937432    0.2058682499    0.1931202386
H       -0.5557149982   -2.2230003307   -2.1042277546
C        0.4068909404    1.6172446315    1.5286738868
N        0.6215308952    2.4516801189    2.3310909145
6    
Image 1/11, Energy =  -169.0527705613 (+0.000 kcal/mol)
C       -0.3451036985   -1.4542073970   -1.3590301477
C       -0.2712042447   -0.5238671522   -0.6060626254
H       -0.1457554632    0.2942863544    0.0985031300
H       -0.3904810754   -2.2764869764   -2.0096994384
C        0.3722055057    1.6433144837    1.5072633073
N        0.7803389759    2.3169606872    2.3690257702
6    
Image 2/11, Energy =  -169.0506465094 (+1.333 kcal/mol)
C       -0.3169199535   -1.4392746719   -1.3209953943
C       -0.3859556588   -0.4526278606   -0.6479122372
H       -0.3395757080    0.4008837770    0.0135948416
H       -0.2222541260   -2.3120392498   -1.8936644699
C        0.3436254683    1.6583614690    1.4787796794
N        0.9210799777    2.1446965359    2.3701975776
6    
Image 3/11, Energy =  -169.0473630318 (+3.393 kcal/mol)
C       -0.2854247753   -1.4093456037   -1.2682681290
C       -0.4942907430   -0.3837648484   -0.6880473793
H       -0.5343905496    0.4999484623   -0.0791121645
H       -0.0551785628   -2.3101047323   -1.7492376188
C        0.3364245858    1.6490695876    1.4483785209
N        1.0328600444    1.9541971335    2.3362867688
6    
Image 4/11, Energy =  -169.0428556988 (+6.222 kcal/mol)
C       -0.2517022272   -1.3600994104   -1.2020086477
C       -0.5946893775   -0.3186209968   -0.7241463421
H       -0.7325188774    0.5903784049   -0.1845575447
H        0.1091413315   -2.2682575853   -1.5741334079
C        0.3505344018    1.6028203543    1.4081980903
N        1.1192347484    1.7537792320    2.2766478510
6    
Image 5/11, Energy =  -169.0369269872 (+9.942 kcal/mol)
C       -0.2200940233   -1.2916411650   -1.1237916915
C       -0.6806933516   -0.2537216457   -0.7521339635
H       -0.9322230776    0.6703100402   -0.3020492129
H        0.2679294052   -2.1827992557   -1.3691598885
C        0.3808184722    1.5056893274    1.3485245312
N        1.1842625748    1.5521626967    2.1986102244
6    
Image 6/11, Energy =  -169.0283059858 (+15.352 kcal/mol)
C       -0.2006653425   -1.2112993955   -1.0462834508
C       -0.7322640936   -0.1836465678   -0.7513812758
H       -1.1194238553    0.7341770403   -0.4211241838
H        0.4116320098   -2.0517128893   -1.1453002680
C        0.4177090561    1.3431522191    1.2581749837
N        1.2230122253    1.3693295906    2.1059141939
6    
Image 7/11, Energy =  -169.0121298016 (+25.502 kcal/mol)
C       -0.2122487945   -1.1445189872   -1.0057861901
C       -0.7110068761   -0.0990016323   -0.6805050423
H       -1.2607916021    0.7718350413   -0.5203125285
H        0.5182206266   -1.8913032404   -0.9346141832
C        0.4460295550    1.1242441748    1.1370520836
N        1.2197970911    1.2387446405    2.0041658596
6    
Image 8/11, Energy =  -168.9962007524 (+35.498 kcal/mol)
C       -0.2522645143   -1.1072913855   -1.0119868205
C       -0.6142342581    0.0012118335   -0.5347892379
H       -1.3287564432    0.7767704047   -0.5793931818
H        0.5739651411   -1.7440719095   -0.7785572613
C        0.4534999138    0.9054692091    1.0106320359
N        1.1677901607    1.1679118442    1.8940944646
6    
Image 9/11, Energy =  -169.0189778021 (+21.205 kcal/mol)
C       -0.2717456554   -1.0753349283   -1.0088719692
C       -0.5057521107    0.0867921253   -0.3802270752
H       -1.3134497915    0.7752573364   -0.5700182486
H        0.5945605415   -1.6764601037   -0.7110455473
C        0.4046787651    0.7756032592    0.8929705564
N        1.0917082510    1.1141423070    1.7771922822
6    
Image 10/11, Energy =  -169.0437609544 (+5.654 kcal/mol)
C       -0.2721093513   -1.0384613434   -0.9953339881
C       -0.4664498990    0.1336943575   -0.3047184047
H       -1.3026915424    0.8069996864   -0.5503883163
H        0.6404231461   -1.5232274468   -0.5526624607
C        0.3524169885    0.6272448767    0.7650856657
N        1.0484106581    0.9937498643    1.6380174988
