6    
Image 0/11, Energy =  -169.0522692293 (+0.220 kcal/mol)
C       -0.3689809232   -1.4576547332   -1.3858823910
C       -0.1536196575   -0.5941379364   -0.5627748996
H        0.0498937432    0.2058682499    0.1931202386
H       -0.5557149982   -2.2230003307   -2.1042277546
C        0.4068909404    1.6172446315    1.5286738868
N        0.6215308952    2.4516801189    2.3310909145
6    
Image 1/11, Energy =  -169.0526202925 (+0.000 kcal/mol)
C       -0.3420216243   -1.4522966871   -1.3542293243
C       -0.2702343799   -0.5174072653   -0.6072829435
H       -0.1494458790    0.3042570202    0.0939476628
H       -0.3873067635   -2.2784309396   -1.9993316869
C        0.3601614887    1.6464901889    1.4988512978
N        0.7888471579    2.2973876825    2.3680449899
6    
Image 2/11, Energy =  -169.0503242158 (+1.441 kcal/mol)
C       -0.3120308439   -1.4344354123   -1.3132578054
C       -0.3863186386   -0.4404340224   -0.6496731851
H       -0.3476350885    0.4173015596    0.0049067301
H       -0.2144719232   -2.3130794278   -1.8737210137
C        0.3273398362    1.6606354547    1.4703320401
N        0.9331166579    2.1100118474    2.3614132308
6    
Image 3/11, Energy =  -169.0468170975 (+3.642 kcal/mol)
C       -0.2783075913   -1.3991314286   -1.2570124721
C       -0.4976788953   -0.3680904591   -0.6906670225
H       -0.5487127743    0.5225137499   -0.0936326351
H       -0.0412683227   -2.3079308587   -1.7182962414
C        0.3172055595    1.6481540538    1.4419860385
N        1.0487620239    1.9044849415    2.3176223302
6    
Image 4/11, Energy =  -169.0421195616 (+6.589 kcal/mol)
C       -0.2434337013   -1.3467043731   -1.1868011011
C       -0.5995551646   -0.3013575695   -0.7287179732
H       -0.7517559084    0.6135547849   -0.2032988276
H        0.1270579140   -2.2600745043   -1.5373373536
C        0.3310973461    1.5942436979    1.4072953223
N        1.1365895140    1.7003379621    2.2488599314
6    
Image 5/11, Energy =  -169.0361819558 (+10.315 kcal/mol)
C       -0.2123267810   -1.2788283856   -1.1086117147
C       -0.6838910804   -0.2393850973   -0.7565264401
H       -0.9498888968    0.6870081931   -0.3199530097
H        0.2834093808   -2.1705542810   -1.3379968248
C        0.3624557484    1.4886140196    1.3530635966
N        1.2002416288    1.5131455487    2.1700243913
6    
Image 6/11, Energy =  -169.0278100282 (+15.569 kcal/mol)
C       -0.1956568666   -1.2025329554   -1.0382657634
C       -0.7336401831   -0.1747404086   -0.7556841658
H       -1.1300279927    0.7427652958   -0.4349799208
H        0.4195028836   -2.0426236008   -1.1258927004
C        0.4024788852    1.3256375990    1.2673688574
N        1.2373432736    1.3514940671    2.0874536921
6    
Image 7/11, Energy =  -169.0120238977 (+25.475 kcal/mol)
C       -0.2107236915   -1.1415535783   -1.0053969399
C       -0.7115811769   -0.0956761382   -0.6837812071
H       -1.2643597407    0.7741283481   -0.5267003537
H        0.5192880993   -1.8884701677   -0.9277723854
C        0.4394606866    1.1138602227    1.1454189509
N        1.2279158231    1.2377113101    1.9982319342
6    
Image 8/11, Energy =  -168.9962095793 (+35.398 kcal/mol)
C       -0.2521019216   -1.1071226275   -1.0124975309
C       -0.6147170212    0.0007661401   -0.5348183990
H       -1.3285274040    0.7771610090   -0.5801573270
H        0.5733092210   -1.7452323601   -0.7799517125
C        0.4535629690    0.9029222431    1.0129923891
N        1.1684741569    1.1715055918    1.8944325795
6    
Image 9/11, Energy =  -169.0185482310 (+21.381 kcal/mol)
C       -0.2719627398   -1.0757315516   -1.0098526822
C       -0.5069209460    0.0856170793   -0.3812101237
H       -1.3135117768    0.7752543906   -0.5708757659
H        0.5941012364   -1.6770995739   -0.7120045114
C        0.4053044921    0.7756592141    0.8955908008
N        1.0929897341    1.1163004375    1.7783522805
6    
Image 10/11, Energy =  -169.0437609544 (+5.559 kcal/mol)
C       -0.2721093513   -1.0384613434   -0.9953339881
C       -0.4664498990    0.1336943575   -0.3047184047
H       -1.3026915424    0.8069996864   -0.5503883163
H        0.6404231461   -1.5232274468   -0.5526624607
C        0.3524169885    0.6272448767    0.7650856657
N        1.0484106581    0.9937498643    1.6380174988
