6    
Image 0/11, Energy =  -169.0522692291 (+0.363 kcal/mol)
C       -0.3689809232   -1.4576547332   -1.3858823910
C       -0.1536196575   -0.5941379364   -0.5627748996
H        0.0498937432    0.2058682499    0.1931202386
H       -0.5557149982   -2.2230003307   -2.1042277546
C        0.4068909404    1.6172446315    1.5286738868
N        0.6215308952    2.4516801189    2.3310909145
6    
Image 1/11, Energy =  -169.0528482463 (+0.000 kcal/mol)
C       -0.3431492400   -1.4584675021   -1.3578996562
C       -0.2655213546   -0.5233549197   -0.6114716072
H       -0.1473852722    0.2998285119    0.0860783276
H       -0.3940215750   -2.2842121684   -2.0042502469
C        0.3477066045    1.6663733707    1.5090100803
N        0.8023708372    2.2998327073    2.3785330987
6    
Image 2/11, Energy =  -169.0506085691 (+1.405 kcal/mol)
C       -0.3115741365   -1.4409122539   -1.3152210772
C       -0.3783498379   -0.4435908687   -0.6547599341
H       -0.3455258069    0.4193087290   -0.0060862894
H       -0.2230577722   -2.3232082781   -1.8751718210
C        0.3013606551    1.6938847366    1.4854647127
N        0.9571468982    2.0945179340    2.3657744068
6    
Image 3/11, Energy =  -169.0472056752 (+3.541 kcal/mol)
C       -0.2768923320   -1.4044685458   -1.2572768722
C       -0.4877629766   -0.3678213769   -0.6964166992
H       -0.5480435617    0.5271746203   -0.1059474747
H       -0.0492358619   -2.3191442757   -1.7163982441
C        0.2844874016    1.6926957826    1.4675095853
N        1.0774473303    1.8715637939    2.3085297039
6    
Image 4/11, Energy =  -169.0426851595 (+6.377 kcal/mol)
C       -0.2396047868   -1.3499355473   -1.1852965597
C       -0.5917764627   -0.2973555966   -0.7390535973
H       -0.7591320031    0.6214820388   -0.2246157553
H        0.1227593054   -2.2720680026   -1.5272206785
C        0.2971109521    1.6499670232    1.4484512076
N        1.1706429950    1.6479100822    2.2277353831
6    
Image 5/11, Energy =  -169.0370934378 (+9.886 kcal/mol)
C       -0.2043310445   -1.2772268701   -1.1012949033
C       -0.6846352587   -0.2328801774   -0.7747643583
H       -0.9705297930    0.6972811296   -0.3574234371
H        0.2851363445   -2.1785641216   -1.3150196922
C        0.3354231907    1.5471505920    1.4051660972
N        1.2389365610    1.4442394445    2.1433362945
6    
Image 6/11, Energy =  -169.0293525093 (+14.744 kcal/mol)
C       -0.1845651673   -1.1926031306   -1.0206403317
C       -0.7485987730   -0.1677140823   -0.7806643565
H       -1.1526112859    0.7542411652   -0.4745441595
H        0.4288653047   -2.0382773003   -1.0892401616
C        0.3831340231    1.3677793237    1.3049983834
N        1.2737758983    1.2765740209    2.0600906272
6    
Image 7/11, Energy =  -169.0135258865 (+24.675 kcal/mol)
C       -0.2012052652   -1.1296808419   -0.9883902834
C       -0.7293459247   -0.0879183715   -0.7064325418
H       -1.2797410116    0.7878312175   -0.5619673186
H        0.5279233795   -1.8755103337   -0.8860148540
C        0.4234826205    1.1251884643    1.1637911373
N        1.2588862014    1.1800898615    1.9790138623
6    
Image 8/11, Energy =  -168.9961774000 (+35.561 kcal/mol)
C       -0.2504075079   -1.1026246590   -1.0116460597
C       -0.6169743868    0.0073780110   -0.5403120235
H       -1.3248942154    0.7883305321   -0.6013570274
H        0.5686221942   -1.7399190212   -0.7533990473
C        0.4404998150    0.9005076335    1.0207443360
N        1.1831541008    1.1463274999    1.8859698238
6    
Image 9/11, Energy =  -169.0167555186 (+22.649 kcal/mol)
C       -0.2705568439   -1.0735667373   -1.0106192403
C       -0.5088428811    0.0878770576   -0.3873246766
H       -1.3085985744    0.7818401171   -0.5896813053
H        0.5834274084   -1.6879070136   -0.7048364375
C        0.4009586570    0.7806836710    0.9089299379
N        1.1036122341    1.1110729011    1.7835317227
6    
Image 10/11, Energy =  -169.0437609545 (+5.702 kcal/mol)
C       -0.2721093513   -1.0384613434   -0.9953339881
C       -0.4664498990    0.1336943575   -0.3047184047
H       -1.3026915424    0.8069996864   -0.5503883163
H        0.6404231461   -1.5232274468   -0.5526624607
C        0.3524169885    0.6272448767    0.7650856657
N        1.0484106581    0.9937498643    1.6380174988
