6    
Image 0/11, Energy =  -169.0522692293 (+0.348 kcal/mol)
C       -0.3689809232   -1.4576547332   -1.3858823910
C       -0.1536196575   -0.5941379364   -0.5627748996
H        0.0498937432    0.2058682499    0.1931202386
H       -0.5557149982   -2.2230003307   -2.1042277546
C        0.4068909404    1.6172446315    1.5286738868
N        0.6215308952    2.4516801189    2.3310909145
6    
Image 1/11, Energy =  -169.0528245905 (+0.000 kcal/mol)
C       -0.3464674420   -1.4524526512   -1.3646620755
C       -0.2754930960   -0.5280115347   -0.6050236512
H       -0.1432789215    0.2861913871    0.1026134639
H       -0.3915541289   -2.2752137862   -2.0152383161
C        0.3851857372    1.6342022353    1.5161549867
N        0.7716078509    2.3352843494    2.3661555883
6    
Image 2/11, Energy =  -169.0507491657 (+1.302 kcal/mol)
C       -0.3213476608   -1.4399908463   -1.3319745020
C       -0.3941442314   -0.4600886287   -0.6464259670
H       -0.3345862377    0.3853743307    0.0225181193
H       -0.2242927676   -2.3096232407   -1.9075174002
C        0.3688751280    1.6386432234    1.4907331729
N        0.9054957690    2.1856851615    2.3726665745
6    
Image 3/11, Energy =  -169.0475018343 (+3.340 kcal/mol)
C       -0.2933758460   -1.4120403606   -1.2817646827
C       -0.5024155260   -0.3949513465   -0.6895999865
H       -0.5262942010    0.4809786367   -0.0671384225
H       -0.0593022845   -2.3098900930   -1.7687320747
C        0.3649665197    1.6280460927    1.4568513060
N        1.0164213371    2.0078570701    2.3503838590
6    
Image 4/11, Energy =  -169.0431406941 (+6.077 kcal/mol)
C       -0.2605217224   -1.3679582991   -1.2169497495
C       -0.6002428139   -0.3318493858   -0.7251579119
H       -0.7206076741    0.5701413710   -0.1692822639
H        0.1011462375   -2.2717069335   -1.5997624486
C        0.3767841652    1.5909383791    1.4104197840
N        1.1034418071    1.8104348672    2.3007325893
6    
Image 5/11, Energy =  -169.0375775694 (+9.568 kcal/mol)
C       -0.2266756984   -1.3044622769   -1.1382884140
C       -0.6826256333   -0.2691749320   -0.7516118340
H       -0.9118224035    0.6506062379   -0.2806402779
H        0.2531104537   -2.1941633714   -1.4035042877
C        0.4019030518    1.5120955072    1.3459568155
N        1.1661102293    1.6050988336    2.2280879977
6    
Image 6/11, Energy =  -169.0295807578 (+14.586 kcal/mol)
C       -0.2037534317   -1.2237925846   -1.0554323105
C       -0.7369055017   -0.1994323983   -0.7555079876
H       -1.0991174846    0.7199700137   -0.4005812063
H        0.3974464003   -2.0684686637   -1.1779895623
C        0.4357572018    1.3684646026    1.2547660844
N        1.2065728156    1.4032590279    2.1347449820
6    
Image 7/11, Energy =  -169.0132789502 (+24.815 kcal/mol)
C       -0.2144254625   -1.1484469722   -1.0060236735
C       -0.7205956376   -0.1058814513   -0.6901102741
H       -1.2627801375    0.7663116255   -0.5175911674
H        0.5193906085   -1.8897484912   -0.9339709972
C        0.4643206197    1.1461934762    1.1278627521
N        1.2140900092    1.2315718099    2.0198333596
6    
Image 8/11, Energy =  -168.9961716225 (+35.550 kcal/mol)
C       -0.2581064128   -1.1068029411   -1.0103795937
C       -0.6116673325    0.0114602107   -0.5313424205
H       -1.3435717035    0.7707490665   -0.5896643675
H        0.5841694558   -1.7128173464   -0.7462565901
C        0.4616110908    0.9047107746    0.9888829444
N        1.1675649023    1.1327002321    1.8887600264
6    
Image 9/11, Energy =  -169.0183369759 (+21.641 kcal/mol)
C       -0.2723800200   -1.0767631478   -1.0049757634
C       -0.5145427272    0.0897970606   -0.3915811265
H       -1.3269086740    0.7714515221   -0.5826430326
H        0.6029919254   -1.6484918324   -0.6822463027
C        0.4101706412    0.7789671437    0.8840616943
N        1.1006688546    1.0850392499    1.7773845288
6    
Image 10/11, Energy =  -169.0437609544 (+5.688 kcal/mol)
C       -0.2721093513   -1.0384613434   -0.9953339881
C       -0.4664498990    0.1336943575   -0.3047184047
H       -1.3026915424    0.8069996864   -0.5503883163
H        0.6404231461   -1.5232274468   -0.5526624607
C        0.3524169885    0.6272448767    0.7650856657
N        1.0484106581    0.9937498643    1.6380174988
