6    
Image 0/11, Energy =  -169.0522692293 (+0.326 kcal/mol)
C       -0.3689809232   -1.4576547332   -1.3858823910
C       -0.1536196575   -0.5941379364   -0.5627748996
H        0.0498937432    0.2058682499    0.1931202386
H       -0.5557149982   -2.2230003307   -2.1042277546
C        0.4068909404    1.6172446315    1.5286738868
N        0.6215308952    2.4516801189    2.3310909145
6    
Image 1/11, Energy =  -169.0527887164 (+0.000 kcal/mol)
C       -0.3464415487   -1.4546631649   -1.3606264869
C       -0.2718368889   -0.5245552279   -0.6061277007
H       -0.1453683663    0.2904938331    0.1005585370
H       -0.3906411558   -2.2753874004   -2.0122219499
C        0.3774363884    1.6405095096    1.5107182625
N        0.7768515711    2.3236024505    2.3676993341
6    
Image 2/11, Energy =  -169.0507180765 (+1.299 kcal/mol)
C       -0.3196862933   -1.4400538552   -1.3258643467
C       -0.3874070951   -0.4563639520   -0.6475372049
H       -0.3378948467    0.3930945043    0.0172327849
H       -0.2239270330   -2.3107156344   -1.9002941541
C        0.3547512585    1.6502947791    1.4840698894
N        0.9141640092    2.1637441578    2.3723930286
6    
Image 3/11, Energy =  -169.0474574044 (+3.345 kcal/mol)
C       -0.2886281249   -1.4103889417   -1.2764204966
C       -0.4961891817   -0.3904028513   -0.6855361452
H       -0.5314419169    0.4917029499   -0.0742918209
H       -0.0581937865   -2.3103991572   -1.7586349091
C        0.3490530360    1.6402708006    1.4512600162
N        1.0253999734    1.9792171991    2.3436233540
6    
Image 4/11, Energy =  -169.0430478051 (+6.113 kcal/mol)
C       -0.2560656036   -1.3639857802   -1.2103301252
C       -0.5944937838   -0.3262888057   -0.7216805181
H       -0.7261464807    0.5818973945   -0.1773251167
H        0.1038048386   -2.2712466694   -1.5879159439
C        0.3616092177    1.5984295040    1.4087851604
N        1.1112918114    1.7811943556    2.2884665426
6    
Image 5/11, Energy =  -169.0372385274 (+9.758 kcal/mol)
C       -0.2255915896   -1.2986068510   -1.1316495657
C       -0.6787170460   -0.2620315091   -0.7497169077
H       -0.9232403494    0.6614279921   -0.2925695354
H        0.2611472502   -2.1883597492   -1.3870419094
C        0.3904425857    1.5087390478    1.3472516569
N        1.1759591488    1.5788310675    2.2137262608
6    
Image 6/11, Energy =  -169.0287402742 (+15.091 kcal/mol)
C       -0.2055287865   -1.2178822339   -1.0529627193
C       -0.7327149783   -0.1899234831   -0.7516709108
H       -1.1135114483    0.7283817640   -0.4144289841
H        0.4076669720   -2.0570770244   -1.1564723788
C        0.4270893136    1.3547093266    1.2558494592
N        1.2169989274    1.3817916483    2.1196855331
6    
Image 7/11, Energy =  -169.0123195822 (+25.395 kcal/mol)
C       -0.2157070120   -1.1471430748   -1.0078930055
C       -0.7124339919   -0.1004147408   -0.6828013312
H       -1.2624726362    0.7693617926   -0.5193341068
H        0.5201551557   -1.8879585592   -0.9306119314
C        0.4530524033    1.1343065306    1.1311721393
N        1.2174060811    1.2318480485    2.0094682348
6    
Image 8/11, Energy =  -168.9961668879 (+35.531 kcal/mol)
C       -0.2539520342   -1.1081597176   -1.0112552379
C       -0.6124551068    0.0039690146   -0.5335634149
H       -1.3314885203    0.7756068740   -0.5792321404
H        0.5775143113   -1.7367856884   -0.7702549439
C        0.4542630853    0.9107623740    1.0023724562
N        1.1661182646    1.1546071399    1.8919332799
6    
Image 9/11, Energy =  -169.0201896898 (+20.456 kcal/mol)
C       -0.2721668253   -1.0746367725   -1.0073877322
C       -0.5026762052    0.0910277234   -0.3775656271
H       -1.3152641707    0.7746645789   -0.5704726585
H        0.5970461901   -1.6726304678   -0.7046980134
C        0.4034950633    0.7756818553    0.8854255009
N        1.0895659478    1.1058930788    1.7746985284
6    
Image 10/11, Energy =  -169.0437609544 (+5.665 kcal/mol)
C       -0.2721093513   -1.0384613434   -0.9953339881
C       -0.4664498990    0.1336943575   -0.3047184047
H       -1.3026915424    0.8069996864   -0.5503883163
H        0.6404231461   -1.5232274468   -0.5526624607
C        0.3524169885    0.6272448767    0.7650856657
N        1.0484106581    0.9937498643    1.6380174988
