6    
Image 0/11, Energy =  -169.0522692293 (+0.066 kcal/mol)
C       -0.3689809232   -1.4576547332   -1.3858823910
C       -0.1536196575   -0.5941379364   -0.5627748996
H        0.0498937432    0.2058682499    0.1931202386
H       -0.5557149982   -2.2230003307   -2.1042277546
C        0.4068909404    1.6172446315    1.5286738868
N        0.6215308952    2.4516801189    2.3310909145
6    
Image 1/11, Energy =  -169.0523741050 (+0.000 kcal/mol)
C       -0.3511582300   -1.4516332027   -1.3684042066
C       -0.2747432239   -0.5220182836   -0.6077946752
H       -0.1351250518    0.2743675706    0.1230810701
H       -0.4017737842   -2.2649206196   -2.0263127537
C        0.4385014877    1.5779412669    1.5417804579
N        0.7242988022    2.3862632676    2.3376501049
6    
Image 2/11, Energy =  -169.0495097839 (+1.797 kcal/mol)
C       -0.3308324965   -1.4358166066   -1.3355598338
C       -0.3928299849   -0.4551843995   -0.6475482946
H       -0.3210233484    0.3622295271    0.0575250777
H       -0.2408800311   -2.2906859059   -1.9321611927
C        0.4606917864    1.5292694694    1.5220585145
N        0.8248740744    2.2901879155    2.3356857281
6    
Image 3/11, Energy =  -169.0455440242 (+4.286 kcal/mol)
C       -0.2976356550   -1.4112188294   -1.2830501430
C       -0.5073684366   -0.3930410969   -0.6888670650
H       -0.5158847960    0.4606374690   -0.0358991041
H       -0.0792637838   -2.2902622496   -1.8033361246
C        0.4683718760    1.4845918060    1.4812511019
N        0.9317807948    2.1492929001    2.3299013346
6    
Image 4/11, Energy =  -169.0408324882 (+7.242 kcal/mol)
C       -0.2542782654   -1.3677023347   -1.2181678413
C       -0.6144855474   -0.3372015918   -0.7224030025
H       -0.7281807343    0.5527448575   -0.1438544460
H        0.0839624883   -2.2580617114   -1.6419401226
C        0.4783405283    1.4459129668    1.4183380550
N        1.0346415292    1.9643078131    2.3080273573
6    
Image 5/11, Energy =  -169.0357152721 (+10.454 kcal/mol)
C       -0.2137836691   -1.3042449351   -1.1331373255
C       -0.6967146451   -0.2790547106   -0.7431275726
H       -0.9279310590    0.6405191078   -0.2635167256
H        0.2392726264   -2.1947493437   -1.4511030234
C        0.4778419437    1.4123698950    1.3310395597
N        1.1213148020    1.7251599863    2.2598450869
6    
Image 6/11, Energy =  -169.0293423964 (+14.453 kcal/mol)
C       -0.1881739485   -1.2273603301   -1.0377393650
C       -0.7447390473   -0.2127997052   -0.7396717680
H       -1.1065411350    0.7191594341   -0.3873816998
H        0.3870748658   -2.0882434958   -1.2308713344
C        0.4778921984    1.3542447062    1.2285164962
N        1.1744870655    1.4549993898    2.1671476706
6    
Image 7/11, Energy =  -169.0169005011 (+22.260 kcal/mol)
C       -0.1927422915   -1.1512726654   -0.9732997617
C       -0.7288651369   -0.1273003864   -0.6825779481
H       -1.2452527386    0.7739508828   -0.4938799628
H        0.5089673470   -1.9410770580   -0.9967832718
C        0.4744007094    1.2263691836    1.1078113018
N        1.1834921101    1.2193300412    2.0387296436
6    
Image 8/11, Energy =  -168.9965475608 (+35.032 kcal/mol)
C       -0.2288436776   -1.1138289508   -0.9747191007
C       -0.6291174979   -0.0125874724   -0.5485655007
H       -1.3119937631    0.7807534248   -0.5534589456
H        0.5674544159   -1.8008937119   -0.8302448031
C        0.4524050169    1.0267442167    0.9860086511
N        1.1500955057    1.1198124909    1.9209796992
6    
Image 9/11, Energy =  -169.0152972206 (+23.266 kcal/mol)
C       -0.2683679039   -1.0767997114   -0.9901055314
C       -0.5005154645    0.0875065150   -0.3811005069
H       -1.3115337989    0.7749790809   -0.5574049025
H        0.5947788540   -1.7107401887   -0.7425371878
C        0.4051409638    0.8326788416    0.8768580087
N        1.0804973495    1.0923754588    1.7942901191
6    
Image 10/11, Energy =  -169.0437609544 (+5.405 kcal/mol)
C       -0.2721093513   -1.0384613434   -0.9953339881
C       -0.4664498990    0.1336943575   -0.3047184047
H       -1.3026915424    0.8069996864   -0.5503883163
H        0.6404231461   -1.5232274468   -0.5526624607
C        0.3524169885    0.6272448767    0.7650856657
N        1.0484106581    0.9937498643    1.6380174988
