6    
Image 0/11, Energy =  -169.0522692293 (+0.817 kcal/mol)
C       -0.3689809232   -1.4576547332   -1.3858823910
C       -0.1536196575   -0.5941379364   -0.5627748996
H        0.0498937432    0.2058682499    0.1931202386
H       -0.5557149982   -2.2230003307   -2.1042277546
C        0.4068909404    1.6172446315    1.5286738868
N        0.6215308952    2.4516801189    2.3310909145
6    
Image 1/11, Energy =  -169.0535711884 (+0.000 kcal/mol)
C       -0.3537783919   -1.4819689461   -1.3932779150
C       -0.2630284157   -0.5670890634   -0.6234358602
H       -0.1394773722    0.2397942687    0.0862274285
H       -0.4199687698   -2.2914590983   -2.0614052743
C        0.3765018597    1.7009331730    1.5775723912
N        0.7997510944    2.3997896694    2.4143192346
6    
Image 2/11, Energy =  -169.0521483659 (+0.893 kcal/mol)
C       -0.3289057616   -1.4693303121   -1.3638575521
C       -0.3525774497   -0.5115269958   -0.6427593626
H       -0.2998954541    0.3246435663    0.0390371439
H       -0.2822365041   -2.3162893333   -1.9852562222
C        0.3257638801    1.7204412228    1.5544950878
N        0.9378512896    2.2520618482    2.3983409055
6    
Image 3/11, Energy =  -169.0503461538 (+2.024 kcal/mol)
C       -0.3055223502   -1.4502665536   -1.3257569802
C       -0.4171112730   -0.4557078444   -0.6659045274
H       -0.4216790369    0.4080858779   -0.0213230055
H       -0.1754500420   -2.3296864752   -1.8867670855
C        0.2937510031    1.7391784751    1.5283444484
N        1.0260116992    2.0883965179    2.3714071503
6    
Image 4/11, Energy =  -169.0461938633 (+4.629 kcal/mol)
C       -0.2644133877   -1.4023487504   -1.2432530795
C       -0.5203876651   -0.3648717369   -0.7022484250
H       -0.6326671791    0.5413283394   -0.1420218448
H        0.0054948924   -2.3175256088   -1.6837019728
C        0.2718993641    1.7658295670    1.4926594617
N        1.1400739769    1.7775881889    2.2785658612
6    
Image 5/11, Energy =  -169.0409893718 (+7.895 kcal/mol)
C       -0.2231967402   -1.3390832926   -1.1468233137
C       -0.6299844617   -0.2875711513   -0.7462746509
H       -0.8664456319    0.6442319077   -0.2923141854
H        0.1861467439   -2.2573038952   -1.4517998864
C        0.3148133006    1.7536075393    1.4702030473
N        1.2186667915    1.4861188898    2.1670089925
6    
Image 6/11, Energy =  -169.0357839506 (+11.162 kcal/mol)
C       -0.1941528864   -1.2599247476   -1.0514749788
C       -0.7213257054   -0.2192460266   -0.7919788320
H       -1.0742766172    0.7191160524   -0.4562677715
H        0.3292568884   -2.1559469503   -1.2140036714
C        0.3800016090    1.6720977038    1.4481151829
N        1.2804967137    1.2439039630    2.0656100810
6    
Image 7/11, Energy =  -169.0300753682 (+14.744 kcal/mol)
C       -0.1747117191   -1.1624030593   -0.9711998843
C       -0.7958974443   -0.1522058485   -0.8319885548
H       -1.2480618153    0.7706365690   -0.5994086449
H        0.4529209636   -2.0041162129   -0.9868281147
C        0.4139769783    1.4378142794    1.3833887537
N        1.3517730391    1.1102742654    2.0060364611
6    
Image 8/11, Energy =  -169.0179628654 (+22.345 kcal/mol)
C       -0.1872910370   -1.1129482540   -0.9572232562
C       -0.7697176208   -0.0860073970   -0.7605415803
H       -1.2961417221    0.8069098458   -0.6080117756
H        0.5234712252   -1.8763487522   -0.8480667307
C        0.4203610467    1.1586736731    1.2074797299
N        1.3093181098    1.1097208770    1.9663636285
6    
Image 9/11, Energy =  -168.9961997672 (+36.001 kcal/mol)
C       -0.2596314513   -1.1011216093   -1.0133134736
C       -0.6095563890    0.0152380064   -0.5438320948
H       -1.3018398107    0.8090018271   -0.6138350705
H        0.5407036835   -1.7580095681   -0.7468425181
C        0.4411702860    0.8895377965    1.0302505000
N        1.1891536842    1.1453535405    1.8875726733
6    
Image 10/11, Energy =  -169.0437609544 (+6.156 kcal/mol)
C       -0.2721093513   -1.0384613434   -0.9953339881
C       -0.4664498990    0.1336943575   -0.3047184047
H       -1.3026915424    0.8069996864   -0.5503883163
H        0.6404231461   -1.5232274468   -0.5526624607
C        0.3524169885    0.6272448767    0.7650856657
N        1.0484106581    0.9937498643    1.6380174988
