6    
Image 0/11, Energy =  -169.0522692293 (+0.342 kcal/mol)
C       -0.3689809232   -1.4576547332   -1.3858823910
C       -0.1536196575   -0.5941379364   -0.5627748996
H        0.0498937432    0.2058682499    0.1931202386
H       -0.5557149982   -2.2230003307   -2.1042277546
C        0.4068909404    1.6172446315    1.5286738868
N        0.6215308952    2.4516801189    2.3310909145
6    
Image 1/11, Energy =  -169.0528149811 (+0.000 kcal/mol)
C       -0.3468085311   -1.4530173173   -1.3627834010
C       -0.2739894680   -0.5271203034   -0.6062571503
H       -0.1441678211    0.2869457348    0.1023324566
H       -0.3912152170   -2.2747845404   -2.0143911907
C        0.3833068158    1.6357756194    1.5145691228
N        0.7728742211    2.3322008067    2.3665301587
6    
Image 2/11, Energy =  -169.0507389086 (+1.303 kcal/mol)
C       -0.3209274478   -1.4403025738   -1.3301683271
C       -0.3917171050   -0.4588976110   -0.6467737628
H       -0.3355939665    0.3871695960    0.0208122515
H       -0.2245096908   -2.3092982342   -1.9052785684
C        0.3650078315    1.6414823607    1.4887221206
N        0.9077403782    2.1798464621    2.3726862837
6    
Image 3/11, Energy =  -169.0474851122 (+3.345 kcal/mol)
C       -0.2915547930   -1.4119302223   -1.2815036785
C       -0.5004048363   -0.3937098488   -0.6866120715
H       -0.5278050675    0.4839226443   -0.0698934497
H       -0.0595522510   -2.3093153330   -1.7654439463
C        0.3605192048    1.6307626573    1.4548712404
N        1.0187977424    2.0002701019    2.3485819042
6    
Image 4/11, Energy =  -169.0431099384 (+6.090 kcal/mol)
C       -0.2591728569   -1.3666042087   -1.2151706923
C       -0.5978597109   -0.3308013305   -0.7235859266
H       -0.7221941806    0.5735702296   -0.1716866067
H        0.1013316260   -2.2712872582   -1.5965462031
C        0.3723534820    1.5923777667    1.4095521306
N        1.1055416399    1.8027448001    2.2974372974
6    
Image 5/11, Energy =  -169.0374751172 (+9.626 kcal/mol)
C       -0.2268489335   -1.3028279952   -1.1362460780
C       -0.6805475144   -0.2675444128   -0.7506574321
H       -0.9155319302    0.6539318589   -0.2840074471
H        0.2553305353   -2.1924829553   -1.3995128317
C        0.3988978077    1.5102887565    1.3462104913
N        1.1687000346    1.5986347463    2.2242132972
6    
Image 6/11, Energy =  -169.0293197386 (+14.743 kcal/mol)
C       -0.2047042707   -1.2222942562   -1.0550956043
C       -0.7355511148   -0.1965088621   -0.7538771565
H       -1.1043199192    0.7230529269   -0.4051132985
H        0.4011110285   -2.0651287459   -1.1713734341
C        0.4337112261    1.3641450673    1.2549159403
N        1.2097530500    1.3967338676    2.1305435527
6    
Image 7/11, Energy =  -169.0129544477 (+25.013 kcal/mol)
C       -0.2152085841   -1.1485231325   -1.0067892756
C       -0.7179660801   -0.1035717218   -0.6875372529
H       -1.2633327096    0.7675557900   -0.5184263663
H        0.5203075612   -1.8889044669   -0.9322042907
C        0.4609645574    1.1429377652    1.1284043840
N        1.2152352550    1.2305057630    2.0165528009
6    
Image 8/11, Energy =  -168.9961661047 (+35.548 kcal/mol)
C       -0.2570364424   -1.1074990722   -1.0109140217
C       -0.6115886813    0.0087409889   -0.5317388123
H       -1.3391162529    0.7727948066   -0.5855126653
H        0.5824047420   -1.7218369295   -0.7546711935
C        0.4584654957    0.9083959656    0.9929456735
N        1.1668711389    1.1394042370    1.8898910184
6    
Image 9/11, Energy =  -169.0193025401 (+21.029 kcal/mol)
C       -0.2736800416   -1.0762115314   -1.0073519357
C       -0.5086201208    0.0909177714   -0.3847256220
H       -1.3219998764    0.7715382427   -0.5785566163
H        0.6009525148   -1.6569147775   -0.6895335506
C        0.4068833481    0.7788719022    0.8838179318
N        1.0964641759    1.0917983887    1.7763497908
6    
Image 10/11, Energy =  -169.0437609544 (+5.681 kcal/mol)
C       -0.2721093513   -1.0384613434   -0.9953339881
C       -0.4664498990    0.1336943575   -0.3047184047
H       -1.3026915424    0.8069996864   -0.5503883163
H        0.6404231461   -1.5232274468   -0.5526624607
C        0.3524169885    0.6272448767    0.7650856657
N        1.0484106581    0.9937498643    1.6380174988
