6    
Image 0/11, Energy =  -169.0522692293 (+0.338 kcal/mol)
C       -0.3689809232   -1.4576547332   -1.3858823910
C       -0.1536196575   -0.5941379364   -0.5627748996
H        0.0498937432    0.2058682499    0.1931202386
H       -0.5557149982   -2.2230003307   -2.1042277546
C        0.4068909404    1.6172446315    1.5286738868
N        0.6215308952    2.4516801189    2.3310909145
6    
Image 1/11, Energy =  -169.0528073098 (+0.000 kcal/mol)
C       -0.3467734786   -1.4538762320   -1.3611569895
C       -0.2725720404   -0.5256899272   -0.6065269474
H       -0.1449393625    0.2888273701    0.1014478704
H       -0.3908363994   -2.2749817737   -2.0132330862
C        0.3798266462    1.6378984592    1.5117531263
N        0.7752946345    2.3278221035    2.3677160226
6    
Image 2/11, Energy =  -169.0507268743 (+1.305 kcal/mol)
C       -0.3202818666   -1.4403246532   -1.3277222477
C       -0.3889564566   -0.4573038669   -0.6471145665
H       -0.3369365835    0.3904095958    0.0186198352
H       -0.2243303298   -2.3098807081   -1.9023668706
C        0.3593256727    1.6463460726    1.4862000520
N        0.9111795633    2.1707535595    2.3723837951
6    
Image 3/11, Energy =  -169.0474649078 (+3.352 kcal/mol)
C       -0.2897666011   -1.4108350532   -1.2789545255
C       -0.4977611085   -0.3921130165   -0.6853173220
H       -0.5299967222    0.4884435286   -0.0726221411
H       -0.0589870310   -2.3098120843   -1.7614951690
C        0.3543619952    1.6358887734    1.4529989799
N        1.0221494671    1.9884278513    2.3453901762
6    
Image 4/11, Energy =  -169.0430732993 (+6.108 kcal/mol)
C       -0.2573673929   -1.3651082375   -1.2125761633
C       -0.5955408459   -0.3282874454   -0.7219916034
H       -0.7244813151    0.5784741923   -0.1749641907
H        0.1025122446   -2.2712887150   -1.5917602952
C        0.3663467832    1.5954662390    1.4091176768
N        1.1085305256    1.7907439654    2.2921745749
6    
Image 5/11, Energy =  -169.0373333736 (+9.710 kcal/mol)
C       -0.2263197165   -1.3007426046   -1.1337369887
C       -0.6790866997   -0.2642068529   -0.7496588103
H       -0.9202154064    0.6582541131   -0.2890454809
H        0.2586608995   -2.1900120847   -1.3926173991
C        0.3945015426    1.5089725395    1.3470981383
N        1.1724593801    1.5877348878    2.2179605403
6    
Image 6/11, Energy =  -169.0289643836 (+14.962 kcal/mol)
C       -0.2054977972   -1.2199469237   -1.0541564020
C       -0.7337093605   -0.1924689917   -0.7522412504
H       -1.1101713980    0.7262649953   -0.4108471397
H        0.4052117735   -2.0602716957   -1.1624467327
C        0.4301804434    1.3585318867    1.2554018641
N        1.2139863386    1.3878907265    2.1242896602
6    
Image 7/11, Energy =  -169.0125561831 (+25.258 kcal/mol)
C       -0.2157499707   -1.1479189243   -1.0075814368
C       -0.7144038961   -0.1014916834   -0.6845006839
H       -1.2629840953    0.7686277620   -0.5189908676
H        0.5203811345   -1.8881907875   -0.9310333102
C        0.4563493909    1.1381425383    1.1299013319
N        1.2164074365    1.2308310917    2.0122049658
6    
Image 8/11, Energy =  -168.9961622561 (+35.545 kcal/mol)
C       -0.2550934864   -1.1080866267   -1.0110238842
C       -0.6120413621    0.0056697333   -0.5328081004
H       -1.3341036969    0.7747399318   -0.5811888289
H        0.5794677933   -1.7316787391   -0.7647588903
C        0.4550430739    0.9107098710    0.9979338537
N        1.1667276783    1.1486458262    1.8918458492
6    
Image 9/11, Energy =  -169.0200230458 (+20.572 kcal/mol)
C       -0.2730608351   -1.0752618097   -1.0076876263
C       -0.5040901067    0.0914188727   -0.3793216873
H       -1.3173998115    0.7733115626   -0.5733529402
H        0.5984908503   -1.6672081320   -0.6991737234
C        0.4046852615    0.7773849200    0.8847995371
N        1.0913746414    1.1003545824    1.7747364382
6    
Image 10/11, Energy =  -169.0437609544 (+5.677 kcal/mol)
C       -0.2721093513   -1.0384613434   -0.9953339881
C       -0.4664498990    0.1336943575   -0.3047184047
H       -1.3026915424    0.8069996864   -0.5503883163
H        0.6404231461   -1.5232274468   -0.5526624607
C        0.3524169885    0.6272448767    0.7650856657
N        1.0484106581    0.9937498643    1.6380174988
