6    
Image 0/11, Energy =  -169.0522692293 (+0.315 kcal/mol)
C       -0.3689809232   -1.4576547332   -1.3858823910
C       -0.1536196575   -0.5941379364   -0.5627748996
H        0.0498937432    0.2058682499    0.1931202386
H       -0.5557149982   -2.2230003307   -2.1042277546
C        0.4068909404    1.6172446315    1.5286738868
N        0.6215308952    2.4516801189    2.3310909145
6    
Image 1/11, Energy =  -169.0527705613 (+0.000 kcal/mol)
C       -0.3451036985   -1.4542073970   -1.3590301477
C       -0.2712042447   -0.5238671522   -0.6060626254
H       -0.1457554632    0.2942863544    0.0985031300
H       -0.3904810754   -2.2764869764   -2.0096994384
C        0.3722055057    1.6433144837    1.5072633073
N        0.7803389759    2.3169606872    2.3690257702
6    
Image 2/11, Energy =  -169.0506798102 (+1.312 kcal/mol)
C       -0.3178926655   -1.4404635242   -1.3231406840
C       -0.3860789230   -0.4531959465   -0.6473000923
H       -0.3391446931    0.3983197711    0.0147895384
H       -0.2229089629   -2.3117145549   -1.8959795628
C        0.3472171320    1.6564247596    1.4807273412
N        0.9188081122    2.1506294945    2.3709034566
6    
Image 3/11, Energy =  -169.0474056297 (+3.367 kcal/mol)
C       -0.2864958726   -1.4098869060   -1.2707508029
C       -0.4944545934   -0.3860166348   -0.6873029040
H       -0.5335244165    0.4973343098   -0.0773005837
H       -0.0563245200   -2.3105174714   -1.7527182906
C        0.3405329086    1.6470021176    1.4495049175
N        1.0302664934    1.9620845839    2.3385676620
6    
Image 4/11, Energy =  -169.0429384632 (+6.170 kcal/mol)
C       -0.2532172723   -1.3613747150   -1.2047954191
C       -0.5941178471   -0.3215682695   -0.7230532974
H       -0.7301530759    0.5876924604   -0.1820299992
H        0.1070815178   -2.2696480042   -1.5791826615
C        0.3538549320    1.6020864236    1.4083857624
N        1.1165517451    1.7628121033    2.2806756137
6    
Image 5/11, Energy =  -169.0370398314 (+9.871 kcal/mol)
C       -0.2221310767   -1.2941290015   -1.1266806060
C       -0.6798375728   -0.2565698821   -0.7510126860
H       -0.9292175457    0.6674293407   -0.2990674848
H        0.2656817720   -2.1847731806   -1.3752120949
C        0.3841846870    1.5071554799    1.3485139461
N        1.1813197360    1.5608872416    2.2034589250
6    
Image 6/11, Energy =  -169.0284154015 (+15.283 kcal/mol)
C       -0.2028663601   -1.2134620870   -1.0487861228
C       -0.7320851154   -0.1855121658   -0.7512709784
H       -1.1180279893    0.7323049558   -0.4194580879
H        0.4107391715   -2.0528758934   -1.1481110053
C        0.4206936495    1.3468686962    1.2570323662
N        1.2215466437    1.3726764915    2.1105938275
6    
Image 7/11, Energy =  -169.0121152017 (+25.512 kcal/mol)
C       -0.2137186427   -1.1454096418   -1.0067741385
C       -0.7109291885   -0.0991922667   -0.6807036364
H       -1.2613121997    0.7710419635   -0.5200021035
H        0.5190379484   -1.8896497942   -0.9326694377
C        0.4479692719    1.1273083257    1.1347648729
N        1.2189528106    1.2359014102    2.0053844423
6    
Image 8/11, Energy =  -168.9961902295 (+35.505 kcal/mol)
C       -0.2525358277   -1.1076711736   -1.0115876021
C       -0.6136414544    0.0018359574   -0.5345253813
H       -1.3289449025    0.7764821244   -0.5786437178
H        0.5747731490   -1.7426247545   -0.7769052456
C        0.4531294350    0.9078564808    1.0079978645
N        1.1672196006    1.1641213619    1.8936640814
6    
Image 9/11, Energy =  -169.0195966964 (+20.817 kcal/mol)
C       -0.2713614279   -1.0748195504   -1.0077303632
C       -0.5040820758    0.0886755954   -0.3784730949
H       -1.3134203743    0.7755416304   -0.5690511613
H        0.5951342870   -1.6763935508   -0.7101944744
C        0.4040482486    0.7749583485    0.8900842323
N        1.0896813425    1.1120375230    1.7753648595
6    
Image 10/11, Energy =  -169.0437609544 (+5.654 kcal/mol)
C       -0.2721093513   -1.0384613434   -0.9953339881
C       -0.4664498990    0.1336943575   -0.3047184047
H       -1.3026915424    0.8069996864   -0.5503883163
H        0.6404231461   -1.5232274468   -0.5526624607
C        0.3524169885    0.6272448767    0.7650856657
N        1.0484106581    0.9937498643    1.6380174988
