6    
Image 0/11, Energy =  -169.0522692293 (+0.202 kcal/mol)
C       -0.3689809232   -1.4576547332   -1.3858823910
C       -0.1536196575   -0.5941379364   -0.5627748996
H        0.0498937432    0.2058682499    0.1931202386
H       -0.5557149982   -2.2230003307   -2.1042277546
C        0.4068909404    1.6172446315    1.5286738868
N        0.6215308952    2.4516801189    2.3310909145
6    
Image 1/11, Energy =  -169.0525913517 (+0.000 kcal/mol)
C       -0.3416989286   -1.4518977166   -1.3536828057
C       -0.2704216119   -0.5162586201   -0.6075027442
H       -0.1503482690    0.3058561097    0.0933565567
H       -0.3864317908   -2.2788122791   -1.9977193508
C        0.3589257409    1.6464401986    1.4980813215
N        0.7899748593    2.2946723071    2.3674670183
6    
Image 2/11, Energy =  -169.0502745252 (+1.454 kcal/mol)
C       -0.3114760356   -1.4335773626   -1.3122700375
C       -0.3869814819   -0.4386562309   -0.6503470965
H       -0.3492610454    0.4195937966    0.0038073254
H       -0.2128374854   -2.3133453994   -1.8708817776
C        0.3256485514    1.6600833805    1.4693605329
N        0.9349074967    2.1059018148    2.3603310500
6    
Image 3/11, Energy =  -169.0467322832 (+3.677 kcal/mol)
C       -0.2776331876   -1.3979679783   -1.2552777353
C       -0.4985690846   -0.3656741125   -0.6919150601
H       -0.5511680277    0.5250993399   -0.0953378243
H       -0.0388890928   -2.3074572267   -1.7142743796
C        0.3156783998    1.6469956068    1.4417630843
N        1.0505809926    1.8990043694    2.3150419126
6    
Image 4/11, Energy =  -169.0420252908 (+6.630 kcal/mol)
C       -0.2427141597   -1.3452892651   -1.1850958238
C       -0.6004137102   -0.2992942344   -0.7297616933
H       -0.7542502075    0.6158124367   -0.2054476064
H        0.1294773448   -2.2588727809   -1.5330870931
C        0.3291112731    1.5923885681    1.4073521363
N        1.1387894595    1.6952552736    2.2460400783
6    
Image 5/11, Energy =  -169.0361083653 (+10.343 kcal/mol)
C       -0.2119075240   -1.2776035642   -1.1077169741
C       -0.6845993644   -0.2380208608   -0.7573836483
H       -0.9518397240    0.6884686255   -0.3221325352
H        0.2852864830   -2.1691637639   -1.3343470664
C        0.3607013892    1.4867896951    1.3539700954
N        1.2023587401    1.5095298658    2.1676101270
6    
Image 6/11, Energy =  -169.0277571178 (+15.584 kcal/mol)
C       -0.1957270333   -1.2018303934   -1.0380632851
C       -0.7339528309   -0.1738403718   -0.7563711771
H       -1.1313736448    0.7434394160   -0.4366079241
H        0.4207013188   -2.0412838572   -1.1231081785
C        0.4016099683    1.3243476249    1.2683420509
N        1.2387422218    1.3491675785    2.0858085128
6    
Image 7/11, Energy =  -169.0119818408 (+25.483 kcal/mol)
C       -0.2107771814   -1.1413337246   -1.0053231836
C       -0.7115858373   -0.0953819842   -0.6837180871
H       -1.2647110022    0.7743136857   -0.5271727447
H        0.5196803268   -1.8878100987   -0.9267882151
C        0.4392895357    1.1134455651    1.1453932804
N        1.2281041584    1.2367665534    1.9976089491
6    
Image 8/11, Energy =  -168.9962095793 (+35.380 kcal/mol)
C       -0.2521019216   -1.1071226275   -1.0124975309
C       -0.6147170212    0.0007661401   -0.5348183990
H       -1.3285274040    0.7771610090   -0.5801573270
H        0.5733092210   -1.7452323601   -0.7799517125
C        0.4535629690    0.9029222431    1.0129923891
N        1.1684741569    1.1715055918    1.8944325795
6    
Image 9/11, Energy =  -169.0185482310 (+21.362 kcal/mol)
C       -0.2719627398   -1.0757315516   -1.0098526822
C       -0.5069209460    0.0856170793   -0.3812101237
H       -1.3135117768    0.7752543906   -0.5708757659
H        0.5941012364   -1.6770995739   -0.7120045114
C        0.4053044921    0.7756592141    0.8955908008
N        1.0929897341    1.1163004375    1.7783522805
6    
Image 10/11, Energy =  -169.0437609544 (+5.541 kcal/mol)
C       -0.2721093513   -1.0384613434   -0.9953339881
C       -0.4664498990    0.1336943575   -0.3047184047
H       -1.3026915424    0.8069996864   -0.5503883163
H        0.6404231461   -1.5232274468   -0.5526624607
C        0.3524169885    0.6272448767    0.7650856657
N        1.0484106581    0.9937498643    1.6380174988
