6    
Image 0/11, Energy =  -169.0522692293 (+0.236 kcal/mol)
C       -0.3689809232   -1.4576547332   -1.3858823910
C       -0.1536196575   -0.5941379364   -0.5627748996
H        0.0498937432    0.2058682499    0.1931202386
H       -0.5557149982   -2.2230003307   -2.1042277546
C        0.4068909404    1.6172446315    1.5286738868
N        0.6215308952    2.4516801189    2.3310909145
6    
Image 1/11, Energy =  -169.0526454331 (+0.000 kcal/mol)
C       -0.3422945276   -1.4526302476   -1.3549566531
C       -0.2703152608   -0.5185875659   -0.6069312515
H       -0.1485636523    0.3026779645    0.0944724635
H       -0.3880841346   -2.2781073567   -2.0009340084
C        0.3616577519    1.6466589840    1.5000671642
N        0.7875998234    2.2999882214    2.3682822813
6    
Image 2/11, Energy =  -169.0503766717 (+1.424 kcal/mol)
C       -0.3124173209   -1.4351314868   -1.3141880356
C       -0.3859794640   -0.4422935626   -0.6490095254
H       -0.3461419695    0.4152296680    0.0057889673
H       -0.2159288698   -2.3128818109   -1.8763874772
C        0.3285754139    1.6610391262    1.4708406760
N        0.9318922101    2.1140380653    2.3629553918
6    
Image 3/11, Energy =  -169.0468987655 (+3.606 kcal/mol)
C       -0.2789270835   -1.4003355436   -1.2586736006
C       -0.4969420419   -0.3704497474   -0.6895853556
H       -0.5463325882    0.5199026460   -0.0919984407
H       -0.0435364655   -2.3084033256   -1.7222503613
C        0.3190717174    1.6495984769    1.4428211867
N        1.0466664614    1.9096874924    2.3196865692
6    
Image 4/11, Energy =  -169.0422189759 (+6.543 kcal/mol)
C       -0.2442200985   -1.3482326824   -1.1885227662
C       -0.5987089813   -0.3033903310   -0.7278171964
H       -0.7493101071    0.6111768994   -0.2011689279
H        0.1247087048   -2.2612757189   -1.5416018365
C        0.3326827882    1.5962962732    1.4070276882
N        1.1348476938    1.7054255578    2.2520830370
6    
Image 5/11, Energy =  -169.0362622126 (+10.281 kcal/mol)
C       -0.2128427186   -1.2801557970   -1.1096916209
C       -0.6832333521   -0.2407195092   -0.7557983348
H       -0.9479379405    0.6854313326   -0.3178283534
H        0.2815436142   -2.1719598814   -1.3415432003
C        0.3640784068    1.4907267453    1.3521317039
N        1.1983919901    1.5166771072    2.1727298041
6    
Image 6/11, Energy =  -169.0278618487 (+15.552 kcal/mol)
C       -0.1956194306   -1.2032499291   -1.0384714159
C       -0.7334454583   -0.1756011279   -0.7550310067
H       -1.1287112383    0.7420786057   -0.4333387966
H        0.4184115826   -2.0438814490   -1.1285255832
C        0.4036252421    1.3270541864    1.2663596362
N        1.2357393025    1.3535997109    2.0890071651
6    
Image 7/11, Energy =  -169.0120238977 (+25.490 kcal/mol)
C       -0.2107236915   -1.1415535783   -1.0053969399
C       -0.7115811769   -0.0956761382   -0.6837812071
H       -1.2643597407    0.7741283481   -0.5267003537
H        0.5192880993   -1.8884701677   -0.9277723854
C        0.4394606866    1.1138602227    1.1454189509
N        1.2279158231    1.2377113101    1.9982319342
6    
Image 8/11, Energy =  -168.9962095793 (+35.414 kcal/mol)
C       -0.2521019216   -1.1071226275   -1.0124975309
C       -0.6147170212    0.0007661401   -0.5348183990
H       -1.3285274040    0.7771610090   -0.5801573270
H        0.5733092210   -1.7452323601   -0.7799517125
C        0.4535629690    0.9029222431    1.0129923891
N        1.1684741569    1.1715055918    1.8944325795
6    
Image 9/11, Energy =  -169.0185482310 (+21.396 kcal/mol)
C       -0.2719627398   -1.0757315516   -1.0098526822
C       -0.5069209460    0.0856170793   -0.3812101237
H       -1.3135117768    0.7752543906   -0.5708757659
H        0.5941012364   -1.6770995739   -0.7120045114
C        0.4053044921    0.7756592141    0.8955908008
N        1.0929897341    1.1163004375    1.7783522805
6    
Image 10/11, Energy =  -169.0437609544 (+5.575 kcal/mol)
C       -0.2721093513   -1.0384613434   -0.9953339881
C       -0.4664498990    0.1336943575   -0.3047184047
H       -1.3026915424    0.8069996864   -0.5503883163
H        0.6404231461   -1.5232274468   -0.5526624607
C        0.3524169885    0.6272448767    0.7650856657
N        1.0484106581    0.9937498643    1.6380174988
