6    
Image 0/11, Energy =  -169.0522692291 (+0.375 kcal/mol)
C       -0.3689809232   -1.4576547332   -1.3858823910
C       -0.1536196575   -0.5941379364   -0.5627748996
H        0.0498937432    0.2058682499    0.1931202386
H       -0.5557149982   -2.2230003307   -2.1042277546
C        0.4068909404    1.6172446315    1.5286738868
N        0.6215308952    2.4516801189    2.3310909145
6    
Image 1/11, Energy =  -169.0528662057 (+0.000 kcal/mol)
C       -0.3434199789   -1.4587224214   -1.3583666394
C       -0.2651761167   -0.5241842017   -0.6113047105
H       -0.1467006135    0.2985407403    0.0866634145
H       -0.3947347116   -2.2838489003   -2.0054977441
C        0.3484793909    1.6665685400    1.5096980229
N        0.8015520295    2.3016462427    2.3788076530
6    
Image 2/11, Energy =  -169.0506929242 (+1.364 kcal/mol)
C       -0.3124748437   -1.4420066613   -1.3169247384
C       -0.3765221568   -0.4465904268   -0.6533637896
H       -0.3416903426    0.4152064696   -0.0033113681
H       -0.2264330065   -2.3225287021   -1.8800841263
C        0.3029825411    1.6950278009    1.4861319245
N        0.9541378082    2.1008915186    2.3675520957
6    
Image 3/11, Energy =  -169.0472432559 (+3.528 kcal/mol)
C       -0.2772724532   -1.4049468296   -1.2578483428
C       -0.4869851391   -0.3687069969   -0.6957345182
H       -0.5462274859    0.5259798282   -0.1045553743
H       -0.0505229862   -2.3192110356   -1.7182344445
C        0.2847384115    1.6932383053    1.4671440935
N        1.0762696527    1.8736467270    2.3092285852
6    
Image 4/11, Energy =  -169.0427907201 (+6.322 kcal/mol)
C       -0.2404902725   -1.3513531657   -1.1867080135
C       -0.5901357486   -0.2991823853   -0.7373868474
H       -0.7543232567    0.6191096419   -0.2203720576
H        0.1198483197   -2.2730917962   -1.5318864850
C        0.2972716532    1.6518284857    1.4467210091
N        1.1678293048    1.6526892172    2.2296323943
6    
Image 5/11, Energy =  -169.0372151014 (+9.821 kcal/mol)
C       -0.2052423915   -1.2789279352   -1.1037156403
C       -0.6831550010   -0.2344048973   -0.7739710580
H       -0.9655914337    0.6954150889   -0.3529336101
H        0.2823649932   -2.1808280644   -1.3194591941
C        0.3342860769    1.5493140471    1.4053731066
N        1.2373377559    1.4494317579    2.1447063968
6    
Image 6/11, Energy =  -169.0294996243 (+14.663 kcal/mol)
C       -0.1851618176   -1.1946998972   -1.0225401729
C       -0.7474214939   -0.1694537399   -0.7797560703
H       -1.1484296730    0.7529010292   -0.4705081881
H        0.4262453533   -2.0415348344   -1.0946729306
C        0.3828174282    1.3712335165    1.3051604742
N        1.2719502029    1.2815539224    2.0623168891
6    
Image 7/11, Energy =  -169.0135949103 (+24.643 kcal/mol)
C       -0.2012319207   -1.1300113073   -0.9886952094
C       -0.7293732059   -0.0883280489   -0.7067099176
H       -1.2791903636    0.7876568730   -0.5614293548
H        0.5275197200   -1.8762708818   -0.8869365440
C        0.4234170330    1.1260886372    1.1643084009
N        1.2588587373    1.1808647241    1.9794626266
6    
Image 8/11, Energy =  -168.9961774000 (+35.573 kcal/mol)
C       -0.2504075079   -1.1026246590   -1.0116460597
C       -0.6169743868    0.0073780110   -0.5403120235
H       -1.3248942154    0.7883305321   -0.6013570274
H        0.5686221942   -1.7399190212   -0.7533990473
C        0.4404998150    0.9005076335    1.0207443360
N        1.1831541008    1.1463274999    1.8859698238
6    
Image 9/11, Energy =  -169.0167555186 (+22.660 kcal/mol)
C       -0.2705568439   -1.0735667373   -1.0106192403
C       -0.5088428811    0.0878770576   -0.3873246766
H       -1.3085985744    0.7818401171   -0.5896813053
H        0.5834274084   -1.6879070136   -0.7048364375
C        0.4009586570    0.7806836710    0.9089299379
N        1.1036122341    1.1110729011    1.7835317227
6    
Image 10/11, Energy =  -169.0437609545 (+5.714 kcal/mol)
C       -0.2721093513   -1.0384613434   -0.9953339881
C       -0.4664498990    0.1336943575   -0.3047184047
H       -1.3026915424    0.8069996864   -0.5503883163
H        0.6404231461   -1.5232274468   -0.5526624607
C        0.3524169885    0.6272448767    0.7650856657
N        1.0484106581    0.9937498643    1.6380174988
