6    
Image 0/11, Energy =  -169.0522692293 (+0.185 kcal/mol)
C       -0.3689809232   -1.4576547332   -1.3858823910
C       -0.1536196575   -0.5941379364   -0.5627748996
H        0.0498937432    0.2058682499    0.1931202386
H       -0.5557149982   -2.2230003307   -2.1042277546
C        0.4068909404    1.6172446315    1.5286738868
N        0.6215308952    2.4516801189    2.3310909145
6    
Image 1/11, Energy =  -169.0525634361 (+0.000 kcal/mol)
C       -0.3412719717   -1.4513690459   -1.3531927017
C       -0.2708789977   -0.5150202345   -0.6077407247
H       -0.1514424444    0.3075603845    0.0926619367
H       -0.3853754478   -2.2792752190   -1.9959342779
C        0.3575805506    1.6460149109    1.4970919684
N        0.7913883110    2.2920892034    2.3671137951
6    
Image 2/11, Energy =  -169.0501596391 (+1.508 kcal/mol)
C       -0.3101161307   -1.4318575674   -1.3100468474
C       -0.3888152160   -0.4348005872   -0.6517736426
H       -0.3529759197    0.4245165333    0.0011169447
H       -0.2091102531   -2.3137750588   -1.8647372187
C        0.3222485305    1.6591369327    1.4677419805
N        0.9387689888    2.0967797463    2.3576987803
6    
Image 3/11, Energy =  -169.0465600302 (+3.767 kcal/mol)
C       -0.2761304092   -1.3956470595   -1.2516093012
C       -0.5006634010   -0.3608104523   -0.6945740084
H       -0.5562848885    0.5303400909   -0.0990942399
H       -0.0338787727   -2.3064226016   -1.7060690917
C        0.3120481751    1.6445963981    1.4411525998
N        1.0549092961    1.8879436229    2.3101940388
6    
Image 4/11, Energy =  -169.0419336862 (+6.670 kcal/mol)
C       -0.2420295143   -1.3439701283   -1.1833656606
C       -0.6014347190   -0.2972101431   -0.7310854426
H       -0.7568146842    0.6178821265   -0.2076116026
H        0.1319953682   -2.2576872378   -1.5288845927
C        0.3274747227    1.5906941442    1.4078901616
N        1.1408088266    1.6902912364    2.2430571348
6    
Image 5/11, Energy =  -169.0360414671 (+10.368 kcal/mol)
C       -0.2115393839   -1.2763558848   -1.1068978495
C       -0.6854856518   -0.2367231952   -0.7585596135
H       -0.9538165422    0.6898112093   -0.3243347904
H        0.2871853860   -2.1677986454   -1.3305753348
C        0.3593997840    1.4852429787    1.3552643613
N        1.2042564078    1.5058235348    2.1651032254
6    
Image 6/11, Energy =  -169.0276800464 (+15.615 kcal/mol)
C       -0.1956926018   -1.2008836139   -1.0376428055
C       -0.7342822918   -0.1728110123   -0.7568736592
H       -1.1330770940    0.7443049946   -0.4384259762
H        0.4221455016   -2.0396719970   -1.1198951606
C        0.4007479362    1.3227636438    1.2688730843
N        1.2401585500    1.3462979819    2.0839645160
6    
Image 7/11, Energy =  -169.0119182601 (+25.505 kcal/mol)
C       -0.2107760265   -1.1409656580   -1.0051116862
C       -0.7116898591   -0.0950037571   -0.6835268390
H       -1.2651811395    0.7746213996   -0.5278503175
H        0.5202557463   -1.8868420642   -0.9254198334
C        0.4389105381    1.1127502385    1.1449605076
N        1.2284807406    1.2354398379    1.9969481675
6    
Image 8/11, Energy =  -168.9962095793 (+35.363 kcal/mol)
C       -0.2521019216   -1.1071226275   -1.0124975309
C       -0.6147170212    0.0007661401   -0.5348183990
H       -1.3285274040    0.7771610090   -0.5801573270
H        0.5733092210   -1.7452323601   -0.7799517125
C        0.4535629690    0.9029222431    1.0129923891
N        1.1684741569    1.1715055918    1.8944325795
6    
Image 9/11, Energy =  -169.0185482310 (+21.345 kcal/mol)
C       -0.2719627398   -1.0757315516   -1.0098526822
C       -0.5069209460    0.0856170793   -0.3812101237
H       -1.3135117768    0.7752543906   -0.5708757659
H        0.5941012364   -1.6770995739   -0.7120045114
C        0.4053044921    0.7756592141    0.8955908008
N        1.0929897341    1.1163004375    1.7783522805
6    
Image 10/11, Energy =  -169.0437609544 (+5.524 kcal/mol)
C       -0.2721093513   -1.0384613434   -0.9953339881
C       -0.4664498990    0.1336943575   -0.3047184047
H       -1.3026915424    0.8069996864   -0.5503883163
H        0.6404231461   -1.5232274468   -0.5526624607
C        0.3524169885    0.6272448767    0.7650856657
N        1.0484106581    0.9937498643    1.6380174988
