3    
Image 0/11, Energy =   -92.8141878332 (+8.789 kcal/mol)
C       -0.7519862172   -0.8272338407    0.0000000000
N        0.0394753340    0.0434721354    0.0000000000
H        0.7125108832    0.7837617053    0.0000000000
3    
Image 1/11, Energy =   -92.8045889484 (+14.812 kcal/mol)
C       -0.5466552364   -0.9029874287    0.0000000000
N       -0.1436204189    0.1960581002   -0.0000000000
H        0.6902756546    0.7069293313    0.0000000000
3    
Image 2/11, Energy =   -92.7765614444 (+32.400 kcal/mol)
C       -0.3750781631   -0.8687779834    0.0000000000
N       -0.3044993551    0.3178938747   -0.0000000000
H        0.6795775177    0.5508841121    0.0000000000
3    
Image 3/11, Energy =   -92.7424947972 (+53.777 kcal/mol)
C       -0.2119313536   -0.7688320058    0.0000000000
N       -0.4614172639    0.3982291811   -0.0000000000
H        0.6733486168    0.3706028285    0.0000000000
3    
Image 4/11, Energy =   -92.7236070825 (+65.629 kcal/mol)
C       -0.0997256935   -0.6415049340    0.0000000000
N       -0.6426784393    0.4143247718   -0.0000000000
H        0.7424041322    0.2271801660   -0.0000000000
3    
Image 5/11, Energy =   -92.7486235765 (+49.931 kcal/mol)
C       -0.0428226988   -0.4865201861    0.0000000000
N       -0.8260283590    0.3752431884   -0.0000000000
H        0.8688510571    0.1112770014    0.0000000000
3    
Image 6/11, Energy =   -92.7953271338 (+20.624 kcal/mol)
C       -0.0057006073   -0.3078916931    0.0000000000
N       -0.9795673660    0.2953232572   -0.0000000000
H        0.9852679724    0.0125684397    0.0000000000
3    
Image 7/11, Energy =   -92.8246249884 (+2.239 kcal/mol)
C        0.0286305623   -0.1037825279    0.0000000000
N       -1.0941548906    0.0977954255   -0.0000000000
H        1.0655243267    0.0059871059   -0.0000000000
3    
Image 8/11, Energy =   -92.8281024138 (+0.057 kcal/mol)
C        0.0343504766   -0.0081339660    0.0000000000
N       -1.0814615679   -0.2518907437   -0.0000000000
H        1.0471110879    0.2600247119    0.0000000000
3    
Image 9/11, Energy =   -92.8281936672 (+0.000 kcal/mol)
C        0.0278944077    0.0143723860    0.0000000000
N       -0.9479895845   -0.5797183499    0.0000000000
H        0.9200951720    0.5653459649    0.0000000000
3    
Image 10/11, Energy =   -92.8275480251 (+0.405 kcal/mol)
C        0.0194260531    0.0213642916    0.0000000000
N       -0.7589320385   -0.8347584655    0.0000000000
H        0.7395059801    0.8133941739    0.0000000000
