3    
Image 0/11, Energy =   -92.8141878332 (+8.781 kcal/mol)
C       -0.7519862172   -0.8272338407    0.0000000000
N        0.0394753340    0.0434721354    0.0000000000
H        0.7125108832    0.7837617053    0.0000000000
3    
Image 1/11, Energy =   -92.8043113649 (+14.978 kcal/mol)
C       -0.5449774443   -0.9014325605    0.0000000000
N       -0.1447678816    0.1973732187   -0.0000000000
H        0.6897453259    0.7040593441   -0.0000000000
3    
Image 2/11, Energy =   -92.7759778199 (+32.758 kcal/mol)
C       -0.3610163418   -0.8716690207   -0.0000000000
N       -0.3113065385    0.3149295403   -0.0000000000
H        0.6723228803    0.5567394837   -0.0000000000
3    
Image 3/11, Energy =   -92.7419916363 (+54.085 kcal/mol)
C       -0.1931524688   -0.7719556194   -0.0000000000
N       -0.4743172436    0.3866903096   -0.0000000000
H        0.6674697124    0.3852653136   -0.0000000000
3    
Image 4/11, Energy =   -92.7236094421 (+65.620 kcal/mol)
C       -0.0824559919   -0.6412679793   -0.0000000000
N       -0.6568037934    0.3978613331   -0.0000000000
H        0.7392597853    0.2434066499   -0.0000000000
3    
Image 5/11, Energy =   -92.7505594934 (+48.708 kcal/mol)
C       -0.0245196890   -0.4797865501   -0.0000000000
N       -0.8455752854    0.3417247652   -0.0000000000
H        0.8700949743    0.1380617885   -0.0000000000
3    
Image 6/11, Energy =   -92.7986822634 (+18.511 kcal/mol)
C        0.0200492334   -0.2907074693   -0.0000000000
N       -1.0094946338    0.2055897692   -0.0000000000
H        0.9894454000    0.0851177038   -0.0000000000
3    
Image 7/11, Energy =   -92.8245749327 (+2.263 kcal/mol)
C        0.0450726537   -0.0967158221   -0.0000000000
N       -1.0937346184   -0.0781046078   -0.0000000000
H        1.0486619635    0.1748204328   -0.0000000000
3    
Image 8/11, Energy =   -92.8279897573 (+0.120 kcal/mol)
C        0.0378054904   -0.0090931211    0.0000000000
N       -1.0360255530   -0.3952354359   -0.0000000000
H        0.9982200601    0.4043285590    0.0000000000
3    
Image 9/11, Energy =   -92.8281810921 (+0.000 kcal/mol)
C        0.0294684691    0.0121883893   -0.0000000000
N       -0.9093153591   -0.6387282070   -0.0000000000
H        0.8798468861    0.6265398187    0.0000000000
3    
Image 10/11, Energy =   -92.8275480250 (+0.397 kcal/mol)
C        0.0194260531    0.0213642916    0.0000000000
N       -0.7589320385   -0.8347584655    0.0000000000
H        0.7395059801    0.8133941739    0.0000000000
