3    
Image 0/11, Energy =   -92.8141878332 (+8.791 kcal/mol)
C       -0.7519862172   -0.8272338407    0.0000000000
N        0.0394753340    0.0434721354    0.0000000000
H        0.7125108832    0.7837617053    0.0000000000
3    
Image 1/11, Energy =   -92.8045889485 (+14.814 kcal/mol)
C       -0.5466552357   -0.9029874265    0.0000000000
N       -0.1436204202    0.1960580981   -0.0000000000
H        0.6902756558    0.7069293336    0.0000000000
3    
Image 2/11, Energy =   -92.7765614444 (+32.402 kcal/mol)
C       -0.3750781612   -0.8687779825    0.0000000000
N       -0.3044993571    0.3178938748   -0.0000000000
H        0.6795775183    0.5508841130    0.0000000000
3    
Image 3/11, Energy =   -92.7424947975 (+53.779 kcal/mol)
C       -0.2119313560   -0.7688320075    0.0000000000
N       -0.4614172650    0.3982291826   -0.0000000000
H        0.6733486157    0.3706028302    0.0000000000
3    
Image 4/11, Energy =   -92.7236070825 (+65.631 kcal/mol)
C       -0.0997256944   -0.6415049325    0.0000000000
N       -0.6426784412    0.4143247743   -0.0000000000
H        0.7424041303    0.2271801635   -0.0000000000
3    
Image 5/11, Energy =   -92.7471909325 (+50.832 kcal/mol)
C       -0.0455507572   -0.4918093398   -0.0000000000
N       -0.8195025372    0.3794195268    0.0000000000
H        0.8650532864    0.1123898182   -0.0000000000
3    
Image 6/11, Energy =   -92.7922638918 (+22.549 kcal/mol)
C       -0.0098184783   -0.3215849355    0.0000000000
N       -0.9681034713    0.3079911974    0.0000000000
H        0.9779219416    0.0135937436   -0.0000000000
3    
Image 7/11, Energy =   -92.8224649348 (+3.597 kcal/mol)
C        0.0244238307   -0.1315941879    0.0000000000
N       -1.0829236661    0.1414137236    0.0000000000
H        1.0584998269   -0.0098195315   -0.0000000000
3    
Image 8/11, Energy =   -92.8280255452 (+0.108 kcal/mol)
C        0.0355006722   -0.0145284432    0.0000000000
N       -1.0853108070   -0.2330513469   -0.0000000000
H        1.0498101296    0.2475797941    0.0000000000
3    
Image 9/11, Energy =   -92.8281972149 (+0.000 kcal/mol)
C        0.0281428134    0.0139376859    0.0000000000
N       -0.9545250990   -0.5694249780    0.0000000000
H        0.9263822829    0.5554872924   -0.0000000000
3    
Image 10/11, Energy =   -92.8275480251 (+0.407 kcal/mol)
C        0.0194260531    0.0213642916    0.0000000000
N       -0.7589320385   -0.8347584655    0.0000000000
H        0.7395059801    0.8133941739    0.0000000000
