3    
Image 0/11, Energy =   -92.8141878332 (+8.792 kcal/mol)
C       -0.7519862172   -0.8272338407    0.0000000000
N        0.0394753340    0.0434721354    0.0000000000
H        0.7125108832    0.7837617053    0.0000000000
3    
Image 1/11, Energy =   -92.8045889485 (+14.816 kcal/mol)
C       -0.5466552357   -0.9029874265    0.0000000000
N       -0.1436204202    0.1960580981   -0.0000000000
H        0.6902756558    0.7069293336    0.0000000000
3    
Image 2/11, Energy =   -92.7765614444 (+32.403 kcal/mol)
C       -0.3750781612   -0.8687779825    0.0000000000
N       -0.3044993571    0.3178938748   -0.0000000000
H        0.6795775183    0.5508841130    0.0000000000
3    
Image 3/11, Energy =   -92.7424947975 (+53.780 kcal/mol)
C       -0.2119313560   -0.7688320075    0.0000000000
N       -0.4614172650    0.3982291826   -0.0000000000
H        0.6733486157    0.3706028302    0.0000000000
3    
Image 4/11, Energy =   -92.7236070825 (+65.632 kcal/mol)
C       -0.0997256944   -0.6415049325    0.0000000000
N       -0.6426784412    0.4143247743   -0.0000000000
H        0.7424041303    0.2271801635   -0.0000000000
3    
Image 5/11, Energy =   -92.7478766290 (+50.403 kcal/mol)
C       -0.0446218130   -0.4892178777    0.0000000000
N       -0.8223314993    0.3780689807    0.0000000000
H        0.8669533051    0.1111489022   -0.0000000000
3    
Image 6/11, Energy =   -92.7930830036 (+22.036 kcal/mol)
C       -0.0088677840   -0.3179932281    0.0000000000
N       -0.9710151657    0.3052371944    0.0000000000
H        0.9798829428    0.0127560390    0.0000000000
3    
Image 7/11, Energy =   -92.8232156685 (+3.127 kcal/mol)
C        0.0262170627   -0.1225905917    0.0000000000
N       -1.0871706755    0.1244065787    0.0000000000
H        1.0609536082   -0.0018159823   -0.0000000000
3    
Image 8/11, Energy =   -92.8280639681 (+0.085 kcal/mol)
C        0.0349922765   -0.0112770404    0.0000000000
N       -1.0820643378   -0.2481342369   -0.0000000000
H        1.0470720591    0.2594112790    0.0000000000
3    
Image 9/11, Energy =   -92.8281990125 (+0.000 kcal/mol)
C        0.0278173875    0.0144080839    0.0000000000
N       -0.9507597875   -0.5758381068    0.0000000000
H        0.9229423965    0.5614300229    0.0000000000
3    
Image 10/11, Energy =   -92.8275480251 (+0.409 kcal/mol)
C        0.0194260531    0.0213642916    0.0000000000
N       -0.7589320385   -0.8347584655    0.0000000000
H        0.7395059801    0.8133941739    0.0000000000
