3    
Image 0/11, Energy =   -92.8141878332 (+8.792 kcal/mol)
C       -0.7519862172   -0.8272338407    0.0000000000
N        0.0394753340    0.0434721354    0.0000000000
H        0.7125108832    0.7837617053    0.0000000000
3    
Image 1/11, Energy =   -92.8045889485 (+14.815 kcal/mol)
C       -0.5466552357   -0.9029874265    0.0000000000
N       -0.1436204202    0.1960580981   -0.0000000000
H        0.6902756558    0.7069293336    0.0000000000
3    
Image 2/11, Energy =   -92.7765614444 (+32.403 kcal/mol)
C       -0.3750781612   -0.8687779825    0.0000000000
N       -0.3044993571    0.3178938748   -0.0000000000
H        0.6795775183    0.5508841130    0.0000000000
3    
Image 3/11, Energy =   -92.7424947975 (+53.780 kcal/mol)
C       -0.2119313560   -0.7688320075    0.0000000000
N       -0.4614172650    0.3982291826   -0.0000000000
H        0.6733486157    0.3706028302    0.0000000000
3    
Image 4/11, Energy =   -92.7236070825 (+65.632 kcal/mol)
C       -0.0997256944   -0.6415049325    0.0000000000
N       -0.6426784412    0.4143247743   -0.0000000000
H        0.7424041303    0.2271801635   -0.0000000000
3    
Image 5/11, Energy =   -92.7474910651 (+50.645 kcal/mol)
C       -0.0451435793   -0.4906931518   -0.0000000000
N       -0.8207454013    0.3788851202    0.0000000000
H        0.8658889728    0.1118080369   -0.0000000000
3    
Image 6/11, Energy =   -92.7930830036 (+22.035 kcal/mol)
C       -0.0088677840   -0.3179932281    0.0000000000
N       -0.9710151657    0.3052371944    0.0000000000
H        0.9798829428    0.0127560390    0.0000000000
3    
Image 7/11, Energy =   -92.8230288842 (+3.244 kcal/mol)
C        0.0257692205   -0.1248917380    0.0000000000
N       -1.0860983370    0.1289076541    0.0000000000
H        1.0603291108   -0.0040159116   -0.0000000000
3    
Image 8/11, Energy =   -92.8280500157 (+0.093 kcal/mol)
C        0.0351895719   -0.0124149898    0.0000000000
N       -1.0828285080   -0.2445000077   -0.0000000000
H        1.0476389332    0.2569150000    0.0000000000
3    
Image 9/11, Energy =   -92.8281986184 (+0.000 kcal/mol)
C        0.0279899399    0.0143176393    0.0000000000
N       -0.9521645951   -0.5735657982    0.0000000000
H        0.9241746520    0.5592481590   -0.0000000000
3    
Image 10/11, Energy =   -92.8275480251 (+0.408 kcal/mol)
C        0.0194260531    0.0213642916    0.0000000000
N       -0.7589320385   -0.8347584655    0.0000000000
H        0.7395059801    0.8133941739    0.0000000000
