3    
Image 0/11, Energy =   -92.8141878332 (+8.760 kcal/mol)
C       -0.7519862172   -0.8272338407    0.0000000000
N        0.0394753340    0.0434721354    0.0000000000
H        0.7125108832    0.7837617053    0.0000000000
3    
Image 1/11, Energy =   -92.8033822664 (+15.541 kcal/mol)
C       -0.5421338433   -0.8984482943    0.0000000000
N       -0.1512031437    0.2039701759   -0.0000000000
H        0.6933369871    0.6944781205   -0.0000000000
3    
Image 2/11, Energy =   -92.7734769656 (+34.307 kcal/mol)
C       -0.3499240228   -0.8656782251   -0.0000000000
N       -0.3219814387    0.3229784584   -0.0000000000
H        0.6719054614    0.5426997699   -0.0000000000
3    
Image 3/11, Energy =   -92.7405817078 (+54.949 kcal/mol)
C       -0.1889690099   -0.7655230920   -0.0000000000
N       -0.4808308859    0.3904737948   -0.0000000000
H        0.6697998958    0.3750493008   -0.0000000000
3    
Image 4/11, Energy =   -92.7236060391 (+65.601 kcal/mol)
C       -0.0832461893   -0.6435057438   -0.0000000000
N       -0.6537088492    0.3976754055   -0.0000000000
H        0.7369550385    0.2458303420   -0.0000000000
3    
Image 5/11, Energy =   -92.7465641603 (+51.195 kcal/mol)
C       -0.0300632007   -0.4953356064   -0.0000000000
N       -0.8291592417    0.3525250026   -0.0000000000
H        0.8592224424    0.1428106076   -0.0000000000
3    
Image 6/11, Energy =   -92.7912365069 (+23.162 kcal/mol)
C        0.0065744085   -0.3256270125   -0.0000000000
N       -0.9795057289    0.2578417346   -0.0000000000
H        0.9729313203    0.0677852815   -0.0000000000
3    
Image 7/11, Energy =   -92.8215779288 (+4.123 kcal/mol)
C        0.0368803846   -0.1372604297   -0.0000000000
N       -1.0874427492    0.0457511406   -0.0000000000
H        1.0505623639    0.0915092922   -0.0000000000
3    
Image 8/11, Energy =   -92.8276849899 (+0.291 kcal/mol)
C        0.0408920828   -0.0266148332   -0.0000000000
N       -1.0696689524   -0.2863678537   -0.0000000000
H        1.0287768674    0.3129826889   -0.0000000000
3    
Image 9/11, Energy =   -92.8281482165 (+0.000 kcal/mol)
C        0.0313817406    0.0093544736   -0.0000000000
N       -0.9425405238   -0.5863030773   -0.0000000000
H        0.9111587792    0.5769486048   -0.0000000000
3    
Image 10/11, Energy =   -92.8275480250 (+0.377 kcal/mol)
C        0.0194260531    0.0213642916    0.0000000000
N       -0.7589320385   -0.8347584655    0.0000000000
H        0.7395059801    0.8133941739    0.0000000000
