3    
Image 0/11, Energy =   -92.8141878332 (+8.792 kcal/mol)
C       -0.7519862172   -0.8272338407    0.0000000000
N        0.0394753340    0.0434721354    0.0000000000
H        0.7125108832    0.7837617053    0.0000000000
3    
Image 1/11, Energy =   -92.8045889485 (+14.816 kcal/mol)
C       -0.5466552357   -0.9029874265    0.0000000000
N       -0.1436204202    0.1960580981   -0.0000000000
H        0.6902756558    0.7069293336    0.0000000000
3    
Image 2/11, Energy =   -92.7765614444 (+32.403 kcal/mol)
C       -0.3750781612   -0.8687779825    0.0000000000
N       -0.3044993571    0.3178938748   -0.0000000000
H        0.6795775183    0.5508841130    0.0000000000
3    
Image 3/11, Energy =   -92.7424947975 (+53.780 kcal/mol)
C       -0.2119313560   -0.7688320075    0.0000000000
N       -0.4614172650    0.3982291826   -0.0000000000
H        0.6733486157    0.3706028302    0.0000000000
3    
Image 4/11, Energy =   -92.7236070825 (+65.632 kcal/mol)
C       -0.0997256944   -0.6415049325    0.0000000000
N       -0.6426784412    0.4143247743   -0.0000000000
H        0.7424041303    0.2271801635   -0.0000000000
3    
Image 5/11, Energy =   -92.7488519528 (+49.791 kcal/mol)
C       -0.0429519139   -0.4856204062    0.0000000000
N       -0.8266084499    0.3755451143    0.0000000000
H        0.8695603607    0.1100752972   -0.0000000000
3    
Image 6/11, Energy =   -92.7954986593 (+20.520 kcal/mol)
C       -0.0059289541   -0.3070722786   -0.0000000000
N       -0.9797971543    0.2957866289    0.0000000000
H        0.9857261074    0.0112856545   -0.0000000000
3    
Image 7/11, Energy =   -92.8245325536 (+2.301 kcal/mol)
C        0.0287420685   -0.1050342465    0.0000000000
N       -1.0940147806    0.0959765681   -0.0000000000
H        1.0652727120    0.0090576804   -0.0000000000
3    
Image 8/11, Energy =   -92.8281095229 (+0.056 kcal/mol)
C        0.0341788251   -0.0076160414   -0.0000000000
N       -1.0803553383   -0.2572031952    0.0000000000
H        1.0461765130    0.2648192366    0.0000000000
3    
Image 9/11, Energy =   -92.8281990018 (+0.000 kcal/mol)
C        0.0277973436    0.0144306717    0.0000000000
N       -0.9480027238   -0.5803769119    0.0000000000
H        0.9202053756    0.5659462402    0.0000000000
3    
Image 10/11, Energy =   -92.8275480251 (+0.408 kcal/mol)
C        0.0194260531    0.0213642916    0.0000000000
N       -0.7589320385   -0.8347584655    0.0000000000
H        0.7395059801    0.8133941739    0.0000000000
