3    
Image 0/11, Energy =   -92.8141878332 (+8.774 kcal/mol)
C       -0.7519862172   -0.8272338407    0.0000000000
N        0.0394753340    0.0434721354    0.0000000000
H        0.7125108832    0.7837617053    0.0000000000
3    
Image 1/11, Energy =   -92.8040853174 (+15.113 kcal/mol)
C       -0.5414744434   -0.9021911276    0.0000000000
N       -0.1471925830    0.1982262476   -0.0000000000
H        0.6886670264    0.7039648820   -0.0000000000
3    
Image 2/11, Energy =   -92.7757057772 (+32.922 kcal/mol)
C       -0.3565026710   -0.8730373782    0.0000000000
N       -0.3137319399    0.3154312870   -0.0000000000
H        0.6702346109    0.5576060946   -0.0000000000
3    
Image 3/11, Energy =   -92.7415036658 (+54.384 kcal/mol)
C       -0.1890075663   -0.7707679330   -0.0000000000
N       -0.4782707878    0.3862163086   -0.0000000000
H        0.6672783541    0.3845516283   -0.0000000000
3    
Image 4/11, Energy =   -92.7236071777 (+65.614 kcal/mol)
C       -0.0830029784   -0.6410941380   -0.0000000000
N       -0.6575042640    0.3968992404   -0.0000000000
H        0.7405072424    0.2441949014   -0.0000000000
3    
Image 5/11, Energy =   -92.7505285768 (+48.721 kcal/mol)
C       -0.0250934604   -0.4807248805   -0.0000000000
N       -0.8453552471    0.3443519691   -0.0000000000
H        0.8704487073    0.1363729151   -0.0000000000
3    
Image 6/11, Energy =   -92.7981480114 (+18.839 kcal/mol)
C        0.0171427113   -0.2935279731   -0.0000000000
N       -1.0060702633    0.2158338498   -0.0000000000
H        0.9889275517    0.0776941269   -0.0000000000
3    
Image 7/11, Energy =   -92.8241844641 (+2.501 kcal/mol)
C        0.0434623898   -0.1032989382    0.0000000000
N       -1.0942401273   -0.0535466116   -0.0000000000
H        1.0507777364    0.1568455528   -0.0000000000
3    
Image 8/11, Energy =   -92.8279513826 (+0.137 kcal/mol)
C        0.0386508024   -0.0124455602    0.0000000000
N       -1.0443830759   -0.3728175839   -0.0000000000
H        1.0057322710    0.3852631461    0.0000000000
3    
Image 9/11, Energy =   -92.8281697343 (+0.000 kcal/mol)
C        0.0308829453    0.0103155657   -0.0000000000
N       -0.9182920875   -0.6256319784   -0.0000000000
H        0.8874091384    0.6153164138    0.0000000000
3    
Image 10/11, Energy =   -92.8275480250 (+0.390 kcal/mol)
C        0.0194260531    0.0213642916    0.0000000000
N       -0.7589320385   -0.8347584655    0.0000000000
H        0.7395059801    0.8133941739    0.0000000000
