3    
Image 0/11, Energy =   -92.8141878332 (+8.792 kcal/mol)
C       -0.7519862172   -0.8272338407    0.0000000000
N        0.0394753340    0.0434721354    0.0000000000
H        0.7125108832    0.7837617053    0.0000000000
3    
Image 1/11, Energy =   -92.8045889485 (+14.816 kcal/mol)
C       -0.5466552357   -0.9029874265    0.0000000000
N       -0.1436204202    0.1960580981   -0.0000000000
H        0.6902756558    0.7069293336    0.0000000000
3    
Image 2/11, Energy =   -92.7765614444 (+32.403 kcal/mol)
C       -0.3750781612   -0.8687779825    0.0000000000
N       -0.3044993571    0.3178938748   -0.0000000000
H        0.6795775183    0.5508841130    0.0000000000
3    
Image 3/11, Energy =   -92.7424947975 (+53.780 kcal/mol)
C       -0.2119313560   -0.7688320075    0.0000000000
N       -0.4614172650    0.3982291826   -0.0000000000
H        0.6733486157    0.3706028302    0.0000000000
3    
Image 4/11, Energy =   -92.7236070825 (+65.633 kcal/mol)
C       -0.0997256944   -0.6415049325    0.0000000000
N       -0.6426784412    0.4143247743   -0.0000000000
H        0.7424041303    0.2271801635   -0.0000000000
3    
Image 5/11, Energy =   -92.7489558143 (+49.726 kcal/mol)
C       -0.0427528784   -0.4852198582   -0.0000000000
N       -0.8270794313    0.3751677954    0.0000000000
H        0.8698323075    0.1100520681   -0.0000000000
3    
Image 6/11, Energy =   -92.7956387410 (+20.432 kcal/mol)
C       -0.0055830970   -0.3064848434   -0.0000000000
N       -0.9804505500    0.2950743991    0.0000000000
H        0.9860336463    0.0114104493   -0.0000000000
3    
Image 7/11, Energy =   -92.8246476785 (+2.229 kcal/mol)
C        0.0288456142   -0.1033346582    0.0000000000
N       -1.0944904058    0.0939436462    0.0000000000
H        1.0656447915    0.0093910134   -0.0000000000
3    
Image 8/11, Energy =   -92.8281095229 (+0.056 kcal/mol)
C        0.0341788251   -0.0076160414   -0.0000000000
N       -1.0803553383   -0.2572031952    0.0000000000
H        1.0461765130    0.2648192366    0.0000000000
3    
Image 9/11, Energy =   -92.8281991508 (+0.000 kcal/mol)
C        0.0278515794    0.0144291488   -0.0000000000
N       -0.9474380791   -0.5813686002   -0.0000000000
H        0.9195864949    0.5669394514    0.0000000000
3    
Image 10/11, Energy =   -92.8275480251 (+0.409 kcal/mol)
C        0.0194260531    0.0213642916    0.0000000000
N       -0.7589320385   -0.8347584655    0.0000000000
H        0.7395059801    0.8133941739    0.0000000000
