3    
Image 0/11, Energy =   -92.8141878332 (+8.765 kcal/mol)
C       -0.7519862172   -0.8272338407    0.0000000000
N        0.0394753340    0.0434721354    0.0000000000
H        0.7125108832    0.7837617053    0.0000000000
3    
Image 1/11, Energy =   -92.8035462313 (+15.442 kcal/mol)
C       -0.5410922296   -0.8997698809   -0.0000000000
N       -0.1504408170    0.2024266255   -0.0000000000
H        0.6915330466    0.6973432574   -0.0000000000
3    
Image 2/11, Energy =   -92.7734769656 (+34.311 kcal/mol)
C       -0.3499240228   -0.8656782251   -0.0000000000
N       -0.3219814387    0.3229784584   -0.0000000000
H        0.6719054614    0.5426997699   -0.0000000000
3    
Image 3/11, Energy =   -92.7406141439 (+54.933 kcal/mol)
C       -0.1888741787   -0.7658221000    0.0000000000
N       -0.4808429037    0.3903379556   -0.0000000000
H        0.6697170824    0.3754841481   -0.0000000000
3    
Image 4/11, Energy =   -92.7236060391 (+65.606 kcal/mol)
C       -0.0832461893   -0.6435057438   -0.0000000000
N       -0.6537088492    0.3976754055   -0.0000000000
H        0.7369550385    0.2458303420   -0.0000000000
3    
Image 5/11, Energy =   -92.7474080852 (+50.670 kcal/mol)
C       -0.0285813079   -0.4920155107   -0.0000000000
N       -0.8328939143    0.3497983265   -0.0000000000
H        0.8614752222    0.1422171880   -0.0000000000
3    
Image 6/11, Energy =   -92.7924717220 (+22.392 kcal/mol)
C        0.0075643702   -0.3201622962   -0.0000000000
N       -0.9835986119    0.2533778419   -0.0000000000
H        0.9760342415    0.0667844580   -0.0000000000
3    
Image 7/11, Energy =   -92.8220945385 (+3.803 kcal/mol)
C        0.0376275099   -0.1317294752   -0.0000000000
N       -1.0895928328    0.0332176199   -0.0000000000
H        1.0519653221    0.0985118584   -0.0000000000
3    
Image 8/11, Energy =   -92.8276917501 (+0.291 kcal/mol)
C        0.0409205831   -0.0261541063   -0.0000000000
N       -1.0671059892   -0.2960342400   -0.0000000000
H        1.0261854038    0.3221883483   -0.0000000000
3    
Image 9/11, Energy =   -92.8281550748 (+0.000 kcal/mol)
C        0.0311876763    0.0098439447   -0.0000000000
N       -0.9397619771   -0.5912099985   -0.0000000000
H        0.9085742968    0.5813660550   -0.0000000000
3    
Image 10/11, Energy =   -92.8275480250 (+0.381 kcal/mol)
C        0.0194260531    0.0213642916    0.0000000000
N       -0.7589320385   -0.8347584655    0.0000000000
H        0.7395059801    0.8133941739    0.0000000000
