3    
Image 0/11, Energy =   -92.8141878332 (+8.792 kcal/mol)
C       -0.7519862172   -0.8272338407    0.0000000000
N        0.0394753340    0.0434721354    0.0000000000
H        0.7125108832    0.7837617053    0.0000000000
3    
Image 1/11, Energy =   -92.8045889485 (+14.815 kcal/mol)
C       -0.5466552357   -0.9029874265    0.0000000000
N       -0.1436204202    0.1960580981   -0.0000000000
H        0.6902756558    0.7069293336    0.0000000000
3    
Image 2/11, Energy =   -92.7765614444 (+32.403 kcal/mol)
C       -0.3750781612   -0.8687779825    0.0000000000
N       -0.3044993571    0.3178938748   -0.0000000000
H        0.6795775183    0.5508841130    0.0000000000
3    
Image 3/11, Energy =   -92.7424947975 (+53.780 kcal/mol)
C       -0.2119313560   -0.7688320075    0.0000000000
N       -0.4614172650    0.3982291826   -0.0000000000
H        0.6733486157    0.3706028302    0.0000000000
3    
Image 4/11, Energy =   -92.7236070825 (+65.632 kcal/mol)
C       -0.0997256944   -0.6415049325    0.0000000000
N       -0.6426784412    0.4143247743   -0.0000000000
H        0.7424041303    0.2271801635   -0.0000000000
3    
Image 5/11, Energy =   -92.7490533319 (+49.664 kcal/mol)
C       -0.0425397633   -0.4848568508   -0.0000000000
N       -0.8275397723    0.3748064026    0.0000000000
H        0.8700795345    0.1100504535   -0.0000000000
3    
Image 6/11, Energy =   -92.7958366669 (+20.307 kcal/mol)
C       -0.0053256373   -0.3055070749   -0.0000000000
N       -0.9812130072    0.2937686181   -0.0000000000
H        0.9865386445    0.0117384619    0.0000000000
3    
Image 7/11, Energy =   -92.8248338109 (+2.111 kcal/mol)
C        0.0288473889   -0.1005335100   -0.0000000000
N       -1.0952091236    0.0908799492   -0.0000000000
H        1.0663617348    0.0096535612   -0.0000000000
3    
Image 8/11, Energy =   -92.8281080577 (+0.057 kcal/mol)
C        0.0340937509   -0.0076838714   -0.0000000000
N       -1.0802902153   -0.2571397755    0.0000000000
H        1.0461964643    0.2648236470    0.0000000000
3    
Image 9/11, Energy =   -92.8281985986 (+0.000 kcal/mol)
C        0.0278990751    0.0143742971   -0.0000000000
N       -0.9464609307   -0.5829083853   -0.0000000000
H        0.9185618505    0.5685340881    0.0000000000
3    
Image 10/11, Energy =   -92.8275480251 (+0.408 kcal/mol)
C        0.0194260531    0.0213642916    0.0000000000
N       -0.7589320385   -0.8347584655    0.0000000000
H        0.7395059801    0.8133941739    0.0000000000
