3    
Image 0/11, Energy =   -92.8141878332 (+8.670 kcal/mol)
C       -0.7519862172   -0.8272338407    0.0000000000
N        0.0394753340    0.0434721354    0.0000000000
H        0.7125108832    0.7837617053    0.0000000000
3    
Image 1/11, Energy =   -92.8034239269 (+15.424 kcal/mol)
C       -0.6178567074   -0.8485001256   -0.0000000000
N       -0.1322400680    0.2162232235   -0.0000000000
H        0.7500967755    0.6322769020    0.0000000000
3    
Image 2/11, Energy =   -92.7737366457 (+34.053 kcal/mol)
C       -0.4484038557   -0.8202219185   -0.0000000000
N       -0.2820212924    0.3568044777    0.0000000000
H        0.7304251481    0.4634174412    0.0000000000
3    
Image 3/11, Energy =   -92.7430377242 (+53.317 kcal/mol)
C       -0.2689807076   -0.7561593784    0.0000000000
N       -0.4338871868    0.4238098407    0.0000000000
H        0.7028678944    0.3323495397    0.0000000000
3    
Image 4/11, Energy =   -92.7235341064 (+65.556 kcal/mol)
C       -0.1043240545   -0.6458052386   -0.0000000000
N       -0.6435222737    0.4107817051   -0.0000000000
H        0.7478463282    0.2350235381    0.0000000000
3    
Image 5/11, Energy =   -92.7407902682 (+54.727 kcal/mol)
C       -0.0044417831   -0.5171675016   -0.0000000000
N       -0.8270479786    0.3017109582    0.0000000000
H        0.8314897617    0.2154565481   -0.0000000000
3    
Image 6/11, Energy =   -92.7763020121 (+32.443 kcal/mol)
C        0.0627509762   -0.3803343054   -0.0000000000
N       -0.9691211353    0.1207092185   -0.0000000000
H        0.9063701591    0.2596250892   -0.0000000000
3    
Image 7/11, Energy =   -92.8082279797 (+12.410 kcal/mol)
C        0.1005335315   -0.2142725024   -0.0000000000
N       -1.0284569113   -0.2205146679   -0.0000000000
H        0.9279233797    0.4347871711   -0.0000000000
3    
Image 8/11, Energy =   -92.8233469426 (+2.922 kcal/mol)
C        0.0887190203   -0.0856286475   -0.0000000000
N       -0.9649043437   -0.5165102697   -0.0000000000
H        0.8761853220    0.6021389205    0.0000000000
3    
Image 9/11, Energy =   -92.8280038629 (+0.000 kcal/mol)
C        0.0395771476    0.0042605496   -0.0000000000
N       -0.8023935451   -0.7684055488   -0.0000000000
H        0.7628163890    0.7641449999   -0.0000000000
3    
Image 10/11, Energy =   -92.8275480250 (+0.286 kcal/mol)
C        0.0194260531    0.0213642916    0.0000000000
N       -0.7589320385   -0.8347584655    0.0000000000
H        0.7395059801    0.8133941739    0.0000000000
