3    
Image 0/11, Energy =   -92.8141878332 (+8.798 kcal/mol)
C       -0.7519862172   -0.8272338407    0.0000000000
N        0.0394753340    0.0434721354    0.0000000000
H        0.7125108832    0.7837617053    0.0000000000
3    
Image 1/11, Energy =   -92.8047395697 (+14.727 kcal/mol)
C       -0.5538147806   -0.8985976229   -0.0000000000
N       -0.1398875852    0.1958215618   -0.0000000000
H        0.6937023657    0.7027760640    0.0000000000
3    
Image 2/11, Energy =   -92.7762953703 (+32.576 kcal/mol)
C       -0.3668425815   -0.8703809029   -0.0000000000
N       -0.3084599623    0.3151099800   -0.0000000000
H        0.6753025438    0.5552709263   -0.0000000000
3    
Image 3/11, Energy =   -92.7429340234 (+53.511 kcal/mol)
C       -0.2033230428   -0.7743829470   -0.0000000000
N       -0.4666593749    0.3881591940   -0.0000000000
H        0.6699824177    0.3862237566   -0.0000000000
3    
Image 4/11, Energy =   -92.7236038209 (+65.640 kcal/mol)
C       -0.0834078033   -0.6425213232   -0.0000000000
N       -0.6527512901    0.3987426325   -0.0000000000
H        0.7361590934    0.2437786944   -0.0000000000
3    
Image 5/11, Energy =   -92.7503576210 (+48.852 kcal/mol)
C       -0.0210609638   -0.4812023138   -0.0000000000
N       -0.8474463794    0.3369985772   -0.0000000000
H        0.8685073431    0.1442037402   -0.0000000000
3    
Image 6/11, Energy =   -92.8000403593 (+17.676 kcal/mol)
C        0.0223087415   -0.2835538055   -0.0000000000
N       -1.0148802642    0.1926114633   -0.0000000000
H        0.9925715223    0.0909423456   -0.0000000000
3    
Image 7/11, Energy =   -92.8255746358 (+1.653 kcal/mol)
C        0.0446457604   -0.0813315774   -0.0000000000
N       -1.0936945724   -0.1222994373   -0.0000000000
H        1.0490488105    0.2036310177    0.0000000000
3    
Image 8/11, Energy =   -92.8280889478 (+0.075 kcal/mol)
C        0.0356317320   -0.0029957883   -0.0000000000
N       -1.0212324679   -0.4355819779   -0.0000000000
H        0.9856007333    0.4385777684    0.0000000000
3    
Image 9/11, Energy =   -92.8282084692 (+0.000 kcal/mol)
C        0.0248976756    0.0189413629    0.0000000000
N       -0.8923189511   -0.6641936559   -0.0000000000
H        0.8674212717    0.6452522938    0.0000000000
3    
Image 10/11, Energy =   -92.8275480250 (+0.414 kcal/mol)
C        0.0194260531    0.0213642916    0.0000000000
N       -0.7589320385   -0.8347584655    0.0000000000
H        0.7395059801    0.8133941739    0.0000000000
