3    
Image 0/11, Energy =   -92.8141878332 (+8.801 kcal/mol)
C       -0.7519862172   -0.8272338407    0.0000000000
N        0.0394753340    0.0434721354    0.0000000000
H        0.7125108832    0.7837617053    0.0000000000
3    
Image 1/11, Energy =   -92.8046362758 (+14.795 kcal/mol)
C       -0.5408890774   -0.9073615312    0.0000000000
N       -0.1450903263    0.1950408767   -0.0000000000
H        0.6859794036    0.7123206651    0.0000000000
3    
Image 2/11, Energy =   -92.7764047735 (+32.511 kcal/mol)
C       -0.3778756354   -0.8672919629   -0.0000000000
N       -0.3036466356    0.3202170844   -0.0000000000
H        0.6815222657    0.5470748838    0.0000000000
3    
Image 3/11, Energy =   -92.7438724412 (+52.925 kcal/mol)
C       -0.2243809484   -0.7718054066   -0.0000000000
N       -0.4494856524    0.4008336341   -0.0000000000
H        0.6738666061    0.3709717831    0.0000000000
3    
Image 4/11, Energy =   -92.7236055115 (+65.643 kcal/mol)
C       -0.1060800120   -0.6396102876   -0.0000000000
N       -0.6387660859    0.4214938660   -0.0000000000
H        0.7448460979    0.2181164268    0.0000000000
3    
Image 5/11, Energy =   -92.7509804255 (+48.465 kcal/mol)
C       -0.0466580680   -0.4772243651   -0.0000000000
N       -0.8298747896    0.3832649242   -0.0000000000
H        0.8765328575    0.0939594408    0.0000000000
3    
Image 6/11, Energy =   -92.8013093105 (+16.883 kcal/mol)
C       -0.0074035067   -0.2794227392    0.0000000000
N       -0.9926091064    0.3027025041    0.0000000000
H        1.0000126078   -0.0232797597   -0.0000000000
3    
Image 7/11, Energy =   -92.8273401220 (+0.548 kcal/mol)
C        0.0303249252   -0.0521425263    0.0000000000
N       -1.1068772964    0.0639564456    0.0000000000
H        1.0765523761   -0.0118139140    0.0000000000
3    
Image 8/11, Energy =   -92.8282075855 (+0.004 kcal/mol)
C        0.0305049710    0.0056971603    0.0000000000
N       -1.0661281031   -0.3176812480   -0.0000000000
H        1.0356231269    0.3119840930   -0.0000000000
3    
Image 9/11, Energy =   -92.8282137531 (+0.000 kcal/mol)
C        0.0257081353    0.0166263453   -0.0000000000
N       -0.9294372733   -0.6120329355    0.0000000000
H        0.9037291379    0.5954065851    0.0000000000
3    
Image 10/11, Energy =   -92.8275480251 (+0.418 kcal/mol)
C        0.0194260531    0.0213642916    0.0000000000
N       -0.7589320385   -0.8347584655    0.0000000000
H        0.7395059801    0.8133941739    0.0000000000
