3    
Image 0/11, Energy =   -92.8141878332 (+8.676 kcal/mol)
C       -0.7519862172   -0.8272338407    0.0000000000
N        0.0394753340    0.0434721354    0.0000000000
H        0.7125108832    0.7837617053    0.0000000000
3    
Image 1/11, Energy =   -92.8034782374 (+15.397 kcal/mol)
C       -0.6186871199   -0.8479913145   -0.0000000000
N       -0.1317005047    0.2157531673   -0.0000000000
H        0.7503876247    0.6322381472    0.0000000000
3    
Image 2/11, Energy =   -92.7735084480 (+34.203 kcal/mol)
C       -0.4501967278   -0.8181147352    0.0000000000
N       -0.2813721114    0.3586508376    0.0000000000
H        0.7315688392    0.4594638978    0.0000000000
3    
Image 3/11, Energy =   -92.7430400071 (+53.322 kcal/mol)
C       -0.2740820905   -0.7538474311    0.0000000000
N       -0.4304791920    0.4268974002    0.0000000000
H        0.7045612824    0.3269500326    0.0000000000
3    
Image 4/11, Energy =   -92.7235374581 (+65.560 kcal/mol)
C       -0.1038648573   -0.6451673968   -0.0000000000
N       -0.6449996514    0.4125067472   -0.0000000000
H        0.7488645088    0.2326606544    0.0000000000
3    
Image 5/11, Energy =   -92.7397935806 (+55.359 kcal/mol)
C       -0.0015395789   -0.5204206777   -0.0000000000
N       -0.8252039813    0.2953268617    0.0000000000
H        0.8267435601    0.2250938207   -0.0000000000
3    
Image 6/11, Energy =   -92.7741412830 (+33.806 kcal/mol)
C        0.0687823987   -0.3892410133   -0.0000000000
N       -0.9661146909    0.1187416267   -0.0000000000
H        0.8973322922    0.2704993885   -0.0000000000
3    
Image 7/11, Energy =   -92.8052648548 (+14.275 kcal/mol)
C        0.1035255669   -0.2247502331   -0.0000000000
N       -1.0189009804   -0.2215645266   -0.0000000000
H        0.9153754135    0.4463147603   -0.0000000000
3    
Image 8/11, Energy =   -92.8226610674 (+3.359 kcal/mol)
C        0.0972927812   -0.0901162858   -0.0000000000
N       -0.9661780285   -0.5154574547   -0.0000000000
H        0.8688852462    0.6055737441    0.0000000000
3    
Image 9/11, Energy =   -92.8280142144 (+0.000 kcal/mol)
C        0.0373179378    0.0054261554   -0.0000000000
N       -0.7945151930   -0.7750996923   -0.0000000000
H        0.7571972463    0.7696735375   -0.0000000000
3    
Image 10/11, Energy =   -92.8275480250 (+0.293 kcal/mol)
C        0.0194260531    0.0213642916    0.0000000000
N       -0.7589320385   -0.8347584655    0.0000000000
H        0.7395059801    0.8133941739    0.0000000000
