3    
Image 0/11, Energy =   -92.8141878332 (+8.642 kcal/mol)
C       -0.7519862172   -0.8272338407    0.0000000000
N        0.0394753340    0.0434721354    0.0000000000
H        0.7125108832    0.7837617053    0.0000000000
3    
Image 1/11, Energy =   -92.8033067112 (+15.470 kcal/mol)
C       -0.6140262608   -0.8508873144   -0.0000000000
N       -0.1341849152    0.2166747344    0.0000000000
H        0.7482111760    0.6342125802    0.0000000000
3    
Image 2/11, Energy =   -92.7745006743 (+33.546 kcal/mol)
C       -0.4398273632   -0.8283751592   -0.0000000000
N       -0.2848422798    0.3496719281    0.0000000000
H        0.7246696430    0.4787032321   -0.0000000000
3    
Image 3/11, Energy =   -92.7430460355 (+53.284 kcal/mol)
C       -0.2521651781   -0.7623127463   -0.0000000000
N       -0.4435531236    0.4137757252   -0.0000000000
H        0.6957183018    0.3485370240   -0.0000000000
3    
Image 4/11, Energy =   -92.7235629222 (+65.510 kcal/mol)
C       -0.1032241828   -0.6495761261   -0.0000000000
N       -0.6410730659    0.4077509738   -0.0000000000
H        0.7442972487    0.2418251565    0.0000000000
3    
Image 5/11, Energy =   -92.7432639725 (+53.147 kcal/mol)
C       -0.0145812869   -0.5105281752   -0.0000000000
N       -0.8307685378    0.3228434159    0.0000000000
H        0.8453498247    0.1876847636   -0.0000000000
3    
Image 6/11, Energy =   -92.7838274106 (+27.693 kcal/mol)
C        0.0516064830   -0.3534864569   -0.0000000000
N       -0.9863734758    0.1349271098   -0.0000000000
H        0.9347669928    0.2185593505   -0.0000000000
3    
Image 7/11, Energy =   -92.8152020578 (+8.005 kcal/mol)
C        0.0881328765   -0.1771523041   -0.0000000000
N       -1.0517186699   -0.2133664050    0.0000000000
H        0.9635857932    0.3905187106   -0.0000000000
3    
Image 8/11, Energy =   -92.8253180566 (+1.658 kcal/mol)
C        0.0728401317   -0.0638526228   -0.0000000000
N       -0.9704028995   -0.5194302660    0.0000000000
H        0.8975627656    0.5832828911    0.0000000000
3    
Image 9/11, Energy =   -92.8279595351 (+0.000 kcal/mol)
C        0.0421167995    0.0011004475   -0.0000000000
N       -0.8248350024   -0.7466813855   -0.0000000000
H        0.7827181957    0.7455809390   -0.0000000000
3    
Image 10/11, Energy =   -92.8275480250 (+0.258 kcal/mol)
C        0.0194260531    0.0213642916    0.0000000000
N       -0.7589320385   -0.8347584655    0.0000000000
H        0.7395059801    0.8133941739    0.0000000000
