3    
Image 0/11, Energy =   -92.8141878332 (+8.758 kcal/mol)
C       -0.7519862172   -0.8272338407    0.0000000000
N        0.0394753340    0.0434721354    0.0000000000
H        0.7125108832    0.7837617053    0.0000000000
3    
Image 1/11, Energy =   -92.8033822664 (+15.538 kcal/mol)
C       -0.5421338433   -0.8984482943    0.0000000000
N       -0.1512031437    0.2039701759   -0.0000000000
H        0.6933369871    0.6944781205   -0.0000000000
3    
Image 2/11, Energy =   -92.7734769656 (+34.304 kcal/mol)
C       -0.3499240228   -0.8656782251   -0.0000000000
N       -0.3219814387    0.3229784584   -0.0000000000
H        0.6719054614    0.5426997699   -0.0000000000
3    
Image 3/11, Energy =   -92.7405599221 (+54.960 kcal/mol)
C       -0.1891577711   -0.7653440514   -0.0000000000
N       -0.4807732865    0.3907351107   -0.0000000000
H        0.6699310575    0.3746089443   -0.0000000000
3    
Image 4/11, Energy =   -92.7236060391 (+65.599 kcal/mol)
C       -0.0832461893   -0.6435057438   -0.0000000000
N       -0.6537088492    0.3976754055   -0.0000000000
H        0.7369550385    0.2458303420   -0.0000000000
3    
Image 5/11, Energy =   -92.7454222891 (+51.909 kcal/mol)
C       -0.0317738496   -0.4997070153   -0.0000000000
N       -0.8241653834    0.3554364356   -0.0000000000
H        0.8559392330    0.1442705835   -0.0000000000
3    
Image 6/11, Energy =   -92.7894934148 (+24.254 kcal/mol)
C        0.0047232973   -0.3332441904   -0.0000000000
N       -0.9735014015    0.2648088323   -0.0000000000
H        0.9687781040    0.0684353618   -0.0000000000
3    
Image 7/11, Energy =   -92.8208459719 (+4.580 kcal/mol)
C        0.0355018934   -0.1452957138   -0.0000000000
N       -1.0847192534    0.0637138787   -0.0000000000
H        1.0492173593    0.0815818382   -0.0000000000
3    
Image 8/11, Energy =   -92.8276684975 (+0.299 kcal/mol)
C        0.0406334432   -0.0277292592   -0.0000000000
N       -1.0732936813   -0.2719838571   -0.0000000000
H        1.0326602359    0.2997131184   -0.0000000000
3    
Image 9/11, Energy =   -92.8281443788 (+0.000 kcal/mol)
C        0.0315569802    0.0090967523   -0.0000000000
N       -0.9466162775   -0.5794542529   -0.0000000000
H        0.9150592933    0.5703575017   -0.0000000000
3    
Image 10/11, Energy =   -92.8275480250 (+0.374 kcal/mol)
C        0.0194260531    0.0213642916    0.0000000000
N       -0.7589320385   -0.8347584655    0.0000000000
H        0.7395059801    0.8133941739    0.0000000000
