3    
Image 0/11, Energy =   -92.8141878332 (+8.797 kcal/mol)
C       -0.7519862172   -0.8272338407    0.0000000000
N        0.0394753340    0.0434721354    0.0000000000
H        0.7125108832    0.7837617053    0.0000000000
3    
Image 1/11, Energy =   -92.8047091062 (+14.745 kcal/mol)
C       -0.5584087318   -0.8948884417   -0.0000000000
N       -0.1393712909    0.1959761332   -0.0000000000
H        0.6977800227    0.6989123113    0.0000000000
3    
Image 2/11, Energy =   -92.7763641730 (+32.532 kcal/mol)
C       -0.3689597769   -0.8704101478   -0.0000000000
N       -0.3075091638    0.3163663604   -0.0000000000
H        0.6764689407    0.5540437910   -0.0000000000
3    
Image 3/11, Energy =   -92.7430983551 (+53.407 kcal/mol)
C       -0.2053139140   -0.7751060452   -0.0000000000
N       -0.4654999614    0.3887374444   -0.0000000000
H        0.6708138753    0.3863686043   -0.0000000000
3    
Image 4/11, Energy =   -92.7236097053 (+65.636 kcal/mol)
C       -0.0852970384   -0.6444223223   -0.0000000000
N       -0.6511393531    0.3990464375   -0.0000000000
H        0.7364363915    0.2453758886   -0.0000000000
3    
Image 5/11, Energy =   -92.7500629930 (+49.036 kcal/mol)
C       -0.0223160377   -0.4818560050   -0.0000000000
N       -0.8459896960    0.3367207136   -0.0000000000
H        0.8683057337    0.1451352951   -0.0000000000
3    
Image 6/11, Energy =   -92.8006843637 (+17.271 kcal/mol)
C        0.0219208237   -0.2804426265   -0.0000000000
N       -1.0165352562    0.1923519526   -0.0000000000
H        0.9946144321    0.0880906773   -0.0000000000
3    
Image 7/11, Energy =   -92.8258320767 (+1.491 kcal/mol)
C        0.0451728178   -0.0763015125   -0.0000000000
N       -1.0931216439   -0.1332365899   -0.0000000000
H        1.0479488247    0.2095381055    0.0000000000
3    
Image 8/11, Energy =   -92.8280972239 (+0.069 kcal/mol)
C        0.0351985119   -0.0013168330   -0.0000000000
N       -1.0162057590   -0.4466022017   -0.0000000000
H        0.9810072445    0.4479190368    0.0000000000
3    
Image 9/11, Energy =   -92.8282074374 (+0.000 kcal/mol)
C        0.0239865484    0.0199491909    0.0000000000
N       -0.8881746842   -0.6694852521   -0.0000000000
H        0.8641881320    0.6495360620    0.0000000000
3    
Image 10/11, Energy =   -92.8275480250 (+0.414 kcal/mol)
C        0.0194260531    0.0213642916    0.0000000000
N       -0.7589320385   -0.8347584655    0.0000000000
H        0.7395059801    0.8133941739    0.0000000000
