3    
Image 0/11, Energy =   -92.8141878332 (+8.797 kcal/mol)
C       -0.7519862172   -0.8272338407    0.0000000000
N        0.0394753340    0.0434721354    0.0000000000
H        0.7125108832    0.7837617053    0.0000000000
3    
Image 1/11, Energy =   -92.8046979439 (+14.752 kcal/mol)
C       -0.5517639807   -0.8988228321   -0.0000000000
N       -0.1409039634    0.1948872252   -0.0000000000
H        0.6926679441    0.7039356098    0.0000000000
3    
Image 2/11, Energy =   -92.7762670585 (+32.593 kcal/mol)
C       -0.3661616892   -0.8706530530   -0.0000000000
N       -0.3086984660    0.3152133601   -0.0000000000
H        0.6748601552    0.5554396963   -0.0000000000
3    
Image 3/11, Energy =   -92.7428302700 (+53.575 kcal/mol)
C       -0.2018350950   -0.7744916770   -0.0000000000
N       -0.4676705837    0.3884673695   -0.0000000000
H        0.6695056787    0.3860243111   -0.0000000000
3    
Image 4/11, Energy =   -92.7236021976 (+65.641 kcal/mol)
C       -0.0825221287   -0.6422983011   -0.0000000000
N       -0.6537292834    0.3990814667   -0.0000000000
H        0.7362514120    0.2432168382   -0.0000000000
3    
Image 5/11, Energy =   -92.7504359241 (+48.802 kcal/mol)
C       -0.0214727826   -0.4805283545   -0.0000000000
N       -0.8472453662    0.3371542998   -0.0000000000
H        0.8687181487    0.1433740584   -0.0000000000
3    
Image 6/11, Energy =   -92.7997365373 (+17.866 kcal/mol)
C        0.0224810204   -0.2850426997   -0.0000000000
N       -1.0140562636    0.1932576284   -0.0000000000
H        0.9915752429    0.0917850747   -0.0000000000
3    
Image 7/11, Energy =   -92.8254186237 (+1.750 kcal/mol)
C        0.0450645832   -0.0839646424   -0.0000000000
N       -1.0938235517   -0.1164822001   -0.0000000000
H        1.0487589671    0.2004468455    0.0000000000
3    
Image 8/11, Energy =   -92.8280752758 (+0.083 kcal/mol)
C        0.0358557039   -0.0039473718   -0.0000000000
N       -1.0233028296   -0.4300142746   -0.0000000000
H        0.9874471231    0.4339616486    0.0000000000
3    
Image 9/11, Energy =   -92.8282074464 (+0.000 kcal/mol)
C        0.0255154631    0.0178837105    0.0000000000
N       -0.8944555851   -0.6609553195   -0.0000000000
H        0.8689401181    0.6430716098    0.0000000000
3    
Image 10/11, Energy =   -92.8275480250 (+0.414 kcal/mol)
C        0.0194260531    0.0213642916    0.0000000000
N       -0.7589320385   -0.8347584655    0.0000000000
H        0.7395059801    0.8133941739    0.0000000000
