3    
Image 0/11, Energy =   -92.8141878332 (+8.790 kcal/mol)
C       -0.7519862172   -0.8272338407    0.0000000000
N        0.0394753340    0.0434721354    0.0000000000
H        0.7125108832    0.7837617053    0.0000000000
3    
Image 1/11, Energy =   -92.8045889485 (+14.814 kcal/mol)
C       -0.5466552357   -0.9029874265    0.0000000000
N       -0.1436204202    0.1960580981   -0.0000000000
H        0.6902756558    0.7069293336    0.0000000000
3    
Image 2/11, Energy =   -92.7765614444 (+32.401 kcal/mol)
C       -0.3750781612   -0.8687779825    0.0000000000
N       -0.3044993571    0.3178938748   -0.0000000000
H        0.6795775183    0.5508841130    0.0000000000
3    
Image 3/11, Energy =   -92.7424947975 (+53.778 kcal/mol)
C       -0.2119313560   -0.7688320075    0.0000000000
N       -0.4614172650    0.3982291826   -0.0000000000
H        0.6733486157    0.3706028302    0.0000000000
3    
Image 4/11, Energy =   -92.7236070825 (+65.630 kcal/mol)
C       -0.0997256944   -0.6415049325    0.0000000000
N       -0.6426784412    0.4143247743   -0.0000000000
H        0.7424041303    0.2271801635   -0.0000000000
3    
Image 5/11, Energy =   -92.7471909325 (+50.831 kcal/mol)
C       -0.0455507572   -0.4918093398   -0.0000000000
N       -0.8195025372    0.3794195268    0.0000000000
H        0.8650532864    0.1123898182   -0.0000000000
3    
Image 6/11, Energy =   -92.7917382187 (+22.878 kcal/mol)
C       -0.0104718855   -0.3238895839    0.0000000000
N       -0.9662028065    0.3099378294    0.0000000000
H        0.9766746834    0.0139517600   -0.0000000000
3    
Image 7/11, Energy =   -92.8222258638 (+3.746 kcal/mol)
C        0.0238797047   -0.1343243584    0.0000000000
N       -1.0816601507    0.1458226726    0.0000000000
H        1.0577804369   -0.0114983099   -0.0000000000
3    
Image 8/11, Energy =   -92.8280241932 (+0.108 kcal/mol)
C        0.0355193496   -0.0146802311    0.0000000000
N       -1.0860816749   -0.2293329685   -0.0000000000
H        1.0505623195    0.2440132038    0.0000000000
3    
Image 9/11, Energy =   -92.8281958916 (+0.000 kcal/mol)
C        0.0282676561    0.0136495450    0.0000000000
N       -0.9561842728   -0.5664685821    0.0000000000
H        0.9279166142    0.5528190376   -0.0000000000
3    
Image 10/11, Energy =   -92.8275480251 (+0.407 kcal/mol)
C        0.0194260531    0.0213642916    0.0000000000
N       -0.7589320385   -0.8347584655    0.0000000000
H        0.7395059801    0.8133941739    0.0000000000
