3    
Image 0/11, Energy =   -92.8141878332 (+8.771 kcal/mol)
C       -0.7519862172   -0.8272338407    0.0000000000
N        0.0394753340    0.0434721354    0.0000000000
H        0.7125108832    0.7837617053    0.0000000000
3    
Image 1/11, Energy =   -92.8039910987 (+15.170 kcal/mol)
C       -0.5405279263   -0.9026992280   -0.0000000000
N       -0.1478613756    0.1992942701   -0.0000000000
H        0.6883893019    0.7034049600   -0.0000000000
3    
Image 2/11, Energy =   -92.7754537958 (+33.077 kcal/mol)
C       -0.3542553984   -0.8717498047    0.0000000000
N       -0.3153658255    0.3141688571   -0.0000000000
H        0.6696212239    0.5575809511   -0.0000000000
3    
Image 3/11, Energy =   -92.7412880248 (+54.516 kcal/mol)
C       -0.1883528475   -0.7697055451   -0.0000000000
N       -0.4794544353    0.3860517465   -0.0000000000
H        0.6678072828    0.3836538025   -0.0000000000
3    
Image 4/11, Energy =   -92.7236053915 (+65.612 kcal/mol)
C       -0.0831004615   -0.6418082645   -0.0000000000
N       -0.6574166431    0.3971202595   -0.0000000000
H        0.7405171045    0.2446880088   -0.0000000000
3    
Image 5/11, Energy =   -92.7503552352 (+48.827 kcal/mol)
C       -0.0260397209   -0.4806612353   -0.0000000000
N       -0.8442076351    0.3436939112   -0.0000000000
H        0.8702473560    0.1369673278   -0.0000000000
3    
Image 6/11, Energy =   -92.7977291624 (+19.099 kcal/mol)
C        0.0155876341   -0.2957050289   -0.0000000000
N       -1.0038481708    0.2217636990   -0.0000000000
H        0.9882605364    0.0739413335   -0.0000000000
3    
Image 7/11, Energy =   -92.8239858036 (+2.623 kcal/mol)
C        0.0431577908   -0.1067517938    0.0000000000
N       -1.0947209853   -0.0413749452   -0.0000000000
H        1.0515631935    0.1481267419   -0.0000000000
3    
Image 8/11, Energy =   -92.8279155745 (+0.157 kcal/mol)
C        0.0391304477   -0.0146597947    0.0000000000
N       -1.0481555264   -0.3614006941   -0.0000000000
H        1.0090250762    0.3760604908   -0.0000000000
3    
Image 9/11, Energy =   -92.8281655587 (+0.000 kcal/mol)
C        0.0308149227    0.0101196973   -0.0000000000
N       -0.9217283573   -0.6200086507   -0.0000000000
H        0.8909134308    0.6098889546    0.0000000000
3    
Image 10/11, Energy =   -92.8275480250 (+0.388 kcal/mol)
C        0.0194260531    0.0213642916    0.0000000000
N       -0.7589320385   -0.8347584655    0.0000000000
H        0.7395059801    0.8133941739    0.0000000000
