3    
Image 0/11, Energy =   -92.8141878332 (+8.792 kcal/mol)
C       -0.7519862172   -0.8272338407    0.0000000000
N        0.0394753340    0.0434721354    0.0000000000
H        0.7125108832    0.7837617053    0.0000000000
3    
Image 1/11, Energy =   -92.8045889485 (+14.816 kcal/mol)
C       -0.5466552357   -0.9029874265    0.0000000000
N       -0.1436204202    0.1960580981   -0.0000000000
H        0.6902756558    0.7069293336    0.0000000000
3    
Image 2/11, Energy =   -92.7765614444 (+32.403 kcal/mol)
C       -0.3750781612   -0.8687779825    0.0000000000
N       -0.3044993571    0.3178938748   -0.0000000000
H        0.6795775183    0.5508841130    0.0000000000
3    
Image 3/11, Energy =   -92.7424947975 (+53.781 kcal/mol)
C       -0.2119313560   -0.7688320075    0.0000000000
N       -0.4614172650    0.3982291826   -0.0000000000
H        0.6733486157    0.3706028302    0.0000000000
3    
Image 4/11, Energy =   -92.7236070825 (+65.633 kcal/mol)
C       -0.0997256944   -0.6415049325    0.0000000000
N       -0.6426784412    0.4143247743   -0.0000000000
H        0.7424041303    0.2271801635   -0.0000000000
3    
Image 5/11, Energy =   -92.7483992191 (+50.075 kcal/mol)
C       -0.0438575322   -0.4872387744    0.0000000000
N       -0.8245233773    0.3768483022    0.0000000000
H        0.8683809036    0.1103904775   -0.0000000000
3    
Image 6/11, Energy =   -92.7941145704 (+21.389 kcal/mol)
C       -0.0078539077   -0.3133703722    0.0000000000
N       -0.9745470416    0.3019177516    0.0000000000
H        0.9824009442    0.0114526255    0.0000000000
3    
Image 7/11, Energy =   -92.8236504865 (+2.855 kcal/mol)
C        0.0272503852   -0.1170449565   -0.0000000000
N       -1.0896428338    0.1135255465   -0.0000000000
H        1.0623924466    0.0035194148    0.0000000000
3    
Image 8/11, Energy =   -92.8280968821 (+0.064 kcal/mol)
C        0.0344362981   -0.0085545981   -0.0000000000
N       -1.0806562530   -0.2551816982   -0.0000000000
H        1.0462199542    0.2637362967    0.0000000000
3    
Image 9/11, Energy =   -92.8281994847 (+0.000 kcal/mol)
C        0.0278291968    0.0144767757    0.0000000000
N       -0.9501149088   -0.5770071995    0.0000000000
H        0.9222857082    0.5625304238    0.0000000000
3    
Image 10/11, Energy =   -92.8275480251 (+0.409 kcal/mol)
C        0.0194260531    0.0213642916    0.0000000000
N       -0.7589320385   -0.8347584655    0.0000000000
H        0.7395059801    0.8133941739    0.0000000000
