3    
Image 0/11, Energy =   -92.8141878332 (+8.792 kcal/mol)
C       -0.7519862172   -0.8272338407    0.0000000000
N        0.0394753340    0.0434721354    0.0000000000
H        0.7125108832    0.7837617053    0.0000000000
3    
Image 1/11, Energy =   -92.8045889485 (+14.815 kcal/mol)
C       -0.5466552357   -0.9029874265    0.0000000000
N       -0.1436204202    0.1960580981   -0.0000000000
H        0.6902756558    0.7069293336    0.0000000000
3    
Image 2/11, Energy =   -92.7765614444 (+32.403 kcal/mol)
C       -0.3750781612   -0.8687779825    0.0000000000
N       -0.3044993571    0.3178938748   -0.0000000000
H        0.6795775183    0.5508841130    0.0000000000
3    
Image 3/11, Energy =   -92.7424947975 (+53.780 kcal/mol)
C       -0.2119313560   -0.7688320075    0.0000000000
N       -0.4614172650    0.3982291826   -0.0000000000
H        0.6733486157    0.3706028302    0.0000000000
3    
Image 4/11, Energy =   -92.7236070825 (+65.632 kcal/mol)
C       -0.0997256944   -0.6415049325    0.0000000000
N       -0.6426784412    0.4143247743   -0.0000000000
H        0.7424041303    0.2271801635   -0.0000000000
3    
Image 5/11, Energy =   -92.7490103876 (+49.691 kcal/mol)
C       -0.0426151686   -0.4850352461    0.0000000000
N       -0.8273511832    0.3749865021   -0.0000000000
H        0.8699663503    0.1100487493   -0.0000000000
3    
Image 6/11, Energy =   -92.7957951484 (+20.334 kcal/mol)
C       -0.0053523102   -0.3057314291   -0.0000000000
N       -0.9810739353    0.2940763391    0.0000000000
H        0.9864262453    0.0116550950   -0.0000000000
3    
Image 7/11, Energy =   -92.8247940250 (+2.136 kcal/mol)
C        0.0289713612   -0.1011910871    0.0000000000
N       -1.0951427260    0.0915727936    0.0000000000
H        1.0661713648    0.0096182942   -0.0000000000
3    
Image 8/11, Energy =   -92.8281095229 (+0.056 kcal/mol)
C        0.0341788251   -0.0076160414   -0.0000000000
N       -1.0803553383   -0.2572031952    0.0000000000
H        1.0461765130    0.2648192366    0.0000000000
3    
Image 9/11, Energy =   -92.8281986776 (+0.000 kcal/mol)
C        0.0278760176    0.0143814162   -0.0000000000
N       -0.9466694208   -0.5825623979   -0.0000000000
H        0.9187933982    0.5681809817    0.0000000000
3    
Image 10/11, Energy =   -92.8275480251 (+0.408 kcal/mol)
C        0.0194260531    0.0213642916    0.0000000000
N       -0.7589320385   -0.8347584655    0.0000000000
H        0.7395059801    0.8133941739    0.0000000000
