3    
Image 0/11, Energy =   -92.8141878332 (+8.462 kcal/mol)
C       -0.7519862172   -0.8272338407    0.0000000000
N        0.0394753340    0.0434721354    0.0000000000
H        0.7125108832    0.7837617053    0.0000000000
3    
Image 1/11, Energy =   -92.8033175246 (+15.284 kcal/mol)
C       -0.6015083634   -0.8598607097   -0.0000000000
N       -0.1379385769    0.2143860423    0.0000000000
H        0.7394469404    0.6454746681   -0.0000000000
3    
Image 2/11, Energy =   -92.7760650994 (+32.385 kcal/mol)
C       -0.4147199818   -0.8482635717   -0.0000000000
N       -0.2922233847    0.3329509864   -0.0000000000
H        0.7069433665    0.5153125880   -0.0000000000
3    
Image 3/11, Energy =   -92.7430695592 (+53.090 kcal/mol)
C       -0.2197284482   -0.7715973351   -0.0000000000
N       -0.4597004535    0.3950033219   -0.0000000000
H        0.6794289017    0.3765940175    0.0000000000
3    
Image 4/11, Energy =   -92.7236739526 (+65.261 kcal/mol)
C       -0.0986271794   -0.6549245925   -0.0000000000
N       -0.6390564763    0.4026580357   -0.0000000000
H        0.7376836557    0.2522665605   -0.0000000000
3    
Image 5/11, Energy =   -92.7465465896 (+50.908 kcal/mol)
C       -0.0327191550   -0.4973146602   -0.0000000000
N       -0.8300682328    0.3533841239   -0.0000000000
H        0.8627873878    0.1439305401    0.0000000000
3    
Image 6/11, Energy =   -92.7971609269 (+19.147 kcal/mol)
C        0.0359771283   -0.3006564149   -0.0000000000
N       -1.0208489426    0.1726948034    0.0000000000
H        0.9848718143    0.1279616160    0.0000000000
3    
Image 7/11, Energy =   -92.8241057409 (+2.239 kcal/mol)
C        0.0547096481   -0.1016197521   -0.0000000000
N       -1.0820561201   -0.1940681791   -0.0000000000
H        1.0273464713    0.2956879343   -0.0000000000
3    
Image 8/11, Energy =   -92.8275760469 (+0.061 kcal/mol)
C        0.0403437753   -0.0186590074   -0.0000000000
N       -0.9794526659   -0.5177035709    0.0000000000
H        0.9391088873    0.5363625794   -0.0000000000
3    
Image 9/11, Energy =   -92.8276736283 (+0.000 kcal/mol)
C        0.0429425426    0.0051951461   -0.0000000000
N       -0.8665887291   -0.7073976462    0.0000000000
H        0.8236461819    0.7022025015   -0.0000000000
3    
Image 10/11, Energy =   -92.8275480250 (+0.079 kcal/mol)
C        0.0194260531    0.0213642916    0.0000000000
N       -0.7589320385   -0.8347584655    0.0000000000
H        0.7395059801    0.8133941739    0.0000000000
