3    
Image 0/11, Energy =   -92.8141878332 (+8.765 kcal/mol)
C       -0.7519862172   -0.8272338407    0.0000000000
N        0.0394753340    0.0434721354    0.0000000000
H        0.7125108832    0.7837617053    0.0000000000
3    
Image 1/11, Energy =   -92.8043416548 (+14.944 kcal/mol)
C       -0.5744090211   -0.8832198153   -0.0000000000
N       -0.1383056971    0.2017520232    0.0000000000
H        0.7127147182    0.6814677944    0.0000000000
3    
Image 2/11, Energy =   -92.7766331335 (+32.331 kcal/mol)
C       -0.3770847534   -0.8670851743   -0.0000000000
N       -0.3036881670    0.3166797526   -0.0000000000
H        0.6807729204    0.5504054258    0.0000000000
3    
Image 3/11, Energy =   -92.7433305136 (+53.229 kcal/mol)
C       -0.2052595206   -0.7758967171   -0.0000000000
N       -0.4643959650    0.3877927705   -0.0000000000
H        0.6696554855    0.3881039504   -0.0000000000
3    
Image 4/11, Energy =   -92.7235723561 (+65.627 kcal/mol)
C       -0.0902753324   -0.6533388747   -0.0000000000
N       -0.6470546981    0.4020107496   -0.0000000000
H        0.7373300305    0.2513281288   -0.0000000000
3    
Image 5/11, Energy =   -92.7492699168 (+49.502 kcal/mol)
C       -0.0250116696   -0.4858043202   -0.0000000000
N       -0.8411956592    0.3468588947   -0.0000000000
H        0.8662073288    0.1389454292   -0.0000000000
3    
Image 6/11, Energy =   -92.8031175017 (+15.712 kcal/mol)
C        0.0216659317   -0.2639315917   -0.0000000000
N       -1.0194098603    0.1930857133   -0.0000000000
H        0.9977439284    0.0708458821    0.0000000000
3    
Image 7/11, Energy =   -92.8263498469 (+1.133 kcal/mol)
C        0.0452281817   -0.0568500418   -0.0000000000
N       -1.0862094139   -0.1611833599   -0.0000000000
H        1.0409812308    0.2180334053   -0.0000000000
3    
Image 8/11, Energy =   -92.8280806427 (+0.047 kcal/mol)
C        0.0342594538    0.0077127344   -0.0000000000
N       -1.0009284275   -0.4783915568   -0.0000000000
H        0.9666689706    0.4706788240    0.0000000000
3    
Image 9/11, Energy =   -92.8281559618 (+0.000 kcal/mol)
C        0.0267727641    0.0203682786    0.0000000000
N       -0.8828996239   -0.6783951148    0.0000000000
H        0.8561268564    0.6580268373    0.0000000000
3    
Image 10/11, Energy =   -92.8275480250 (+0.381 kcal/mol)
C        0.0194260531    0.0213642916    0.0000000000
N       -0.7589320385   -0.8347584655    0.0000000000
H        0.7395059801    0.8133941739    0.0000000000
