3    
Image 0/11, Energy =   -92.8141878332 (+8.771 kcal/mol)
C       -0.7519862172   -0.8272338407    0.0000000000
N        0.0394753340    0.0434721354    0.0000000000
H        0.7125108832    0.7837617053    0.0000000000
3    
Image 1/11, Energy =   -92.8037390249 (+15.328 kcal/mol)
C       -0.5391876790   -0.9019533513   -0.0000000000
N       -0.1497930469    0.2006782321   -0.0000000000
H        0.6889807259    0.7012751213   -0.0000000000
3    
Image 2/11, Energy =   -92.7747241945 (+33.535 kcal/mol)
C       -0.3501202151   -0.8709844974    0.0000000000
N       -0.3188679330    0.3170611601   -0.0000000000
H        0.6689881480    0.5539233407   -0.0000000000
3    
Image 3/11, Energy =   -92.7408965723 (+54.762 kcal/mol)
C       -0.1880473728   -0.7681412572    0.0000000000
N       -0.4811702708    0.3878133945   -0.0000000000
H        0.6692176436    0.3803278663   -0.0000000000
3    
Image 4/11, Energy =   -92.7236039782 (+65.614 kcal/mol)
C       -0.0833456337   -0.6428197143   -0.0000000000
N       -0.6552740870    0.3972635417   -0.0000000000
H        0.7386197207    0.2455561764   -0.0000000000
3    
Image 5/11, Energy =   -92.7496234696 (+49.286 kcal/mol)
C       -0.0257973270   -0.4838715954   -0.0000000000
N       -0.8421358219    0.3445231464   -0.0000000000
H        0.8679331487    0.1393484527   -0.0000000000
3    
Image 6/11, Energy =   -92.7960730451 (+20.139 kcal/mol)
C        0.0119143051   -0.3037973403   -0.0000000000
N       -0.9967813963    0.2354614548   -0.0000000000
H        0.9848670910    0.0683358890   -0.0000000000
3    
Image 7/11, Energy =   -92.8233771650 (+3.005 kcal/mol)
C        0.0407494255   -0.1160963280   -0.0000000000
N       -1.0941683731   -0.0112732208   -0.0000000000
H        1.0534189466    0.1273695517   -0.0000000000
3    
Image 8/11, Energy =   -92.8278183704 (+0.218 kcal/mol)
C        0.0403747973   -0.0203468276    0.0000000000
N       -1.0570334330   -0.3336169048   -0.0000000000
H        1.0166586332    0.3539637344   -0.0000000000
3    
Image 9/11, Energy =   -92.8281660684 (+0.000 kcal/mol)
C        0.0309364635    0.0104539826   -0.0000000000
N       -0.9296465071   -0.6079991037   -0.0000000000
H        0.8987100397    0.5975451223    0.0000000000
3    
Image 10/11, Energy =   -92.8275480250 (+0.388 kcal/mol)
C        0.0194260531    0.0213642916    0.0000000000
N       -0.7589320385   -0.8347584655    0.0000000000
H        0.7395059801    0.8133941739    0.0000000000
