3    
Image 0/11, Energy =   -92.8141878332 (+8.802 kcal/mol)
C       -0.7519862172   -0.8272338407    0.0000000000
N        0.0394753340    0.0434721354    0.0000000000
H        0.7125108832    0.7837617053    0.0000000000
3    
Image 1/11, Energy =   -92.8046362758 (+14.795 kcal/mol)
C       -0.5408890774   -0.9073615312    0.0000000000
N       -0.1450903263    0.1950408767   -0.0000000000
H        0.6859794036    0.7123206651    0.0000000000
3    
Image 2/11, Energy =   -92.7764047735 (+32.511 kcal/mol)
C       -0.3778756354   -0.8672919629   -0.0000000000
N       -0.3036466356    0.3202170844   -0.0000000000
H        0.6815222657    0.5470748838    0.0000000000
3    
Image 3/11, Energy =   -92.7438724412 (+52.925 kcal/mol)
C       -0.2243809484   -0.7718054066   -0.0000000000
N       -0.4494856524    0.4008336341   -0.0000000000
H        0.6738666061    0.3709717831    0.0000000000
3    
Image 4/11, Energy =   -92.7236055115 (+65.643 kcal/mol)
C       -0.1060800120   -0.6396102876   -0.0000000000
N       -0.6387660859    0.4214938660   -0.0000000000
H        0.7448460979    0.2181164268    0.0000000000
3    
Image 5/11, Energy =   -92.7509804255 (+48.465 kcal/mol)
C       -0.0466580680   -0.4772243651   -0.0000000000
N       -0.8298747896    0.3832649242   -0.0000000000
H        0.8765328575    0.0939594408    0.0000000000
3    
Image 6/11, Energy =   -92.8012344740 (+16.930 kcal/mol)
C       -0.0075653767   -0.2798092767    0.0000000000
N       -0.9922516367    0.3033336538   -0.0000000000
H        0.9998170081   -0.0235243718   -0.0000000000
3    
Image 7/11, Energy =   -92.8272760036 (+0.589 kcal/mol)
C        0.0300042297   -0.0541589545   -0.0000000000
N       -1.1062091322    0.0711225366    0.0000000000
H        1.0762049074   -0.0169635768   -0.0000000000
3    
Image 8/11, Energy =   -92.8282071895 (+0.004 kcal/mol)
C        0.0305750773    0.0054427629   -0.0000000000
N       -1.0674741039   -0.3130829571   -0.0000000000
H        1.0368990267    0.3076401994   -0.0000000000
3    
Image 9/11, Energy =   -92.8282140505 (+0.000 kcal/mol)
C        0.0258509629    0.0166618218    0.0000000000
N       -0.9305347093   -0.6105286925   -0.0000000000
H        0.9046837516    0.5938668706    0.0000000000
3    
Image 10/11, Energy =   -92.8275480251 (+0.418 kcal/mol)
C        0.0194260531    0.0213642916    0.0000000000
N       -0.7589320385   -0.8347584655    0.0000000000
H        0.7395059801    0.8133941739    0.0000000000
