3    
Image 0/11, Energy =   -92.8141878332 (+8.795 kcal/mol)
C       -0.7519862172   -0.8272338407    0.0000000000
N        0.0394753340    0.0434721354    0.0000000000
H        0.7125108832    0.7837617053    0.0000000000
3    
Image 1/11, Energy =   -92.8046280521 (+14.794 kcal/mol)
C       -0.5497977179   -0.8999552772   -0.0000000000
N       -0.1416033239    0.1955286001   -0.0000000000
H        0.6914010418    0.7044266798   -0.0000000000
3    
Image 2/11, Energy =   -92.7762275664 (+32.615 kcal/mol)
C       -0.3651974418   -0.8713426379   -0.0000000000
N       -0.3090632037    0.3157180811   -0.0000000000
H        0.6742606455    0.5556245601   -0.0000000000
3    
Image 3/11, Energy =   -92.7426494952 (+53.686 kcal/mol)
C       -0.1996934893   -0.7739169225   -0.0000000000
N       -0.4690849721    0.3880512449   -0.0000000000
H        0.6687784613    0.3858656812   -0.0000000000
3    
Image 4/11, Energy =   -92.7236025099 (+65.638 kcal/mol)
C       -0.0820650364   -0.6418014187   -0.0000000000
N       -0.6547076087    0.3989216053   -0.0000000000
H        0.7367726451    0.2428798172   -0.0000000000
3    
Image 5/11, Energy =   -92.7505065552 (+48.756 kcal/mol)
C       -0.0221513811   -0.4799968824   -0.0000000000
N       -0.8468662843    0.3380857368   -0.0000000000
H        0.8690176653    0.1419111493   -0.0000000000
3    
Image 6/11, Energy =   -92.7994079463 (+18.070 kcal/mol)
C        0.0222068672   -0.2866175813   -0.0000000000
N       -1.0128808627    0.1949907457   -0.0000000000
H        0.9906739951    0.0916268390   -0.0000000000
3    
Image 7/11, Energy =   -92.8252021705 (+1.883 kcal/mol)
C        0.0454698797   -0.0872813099   -0.0000000000
N       -1.0937787445   -0.1079521013   -0.0000000000
H        1.0483088634    0.1952334142    0.0000000000
3    
Image 8/11, Energy =   -92.8280553291 (+0.093 kcal/mol)
C        0.0363088807   -0.0051142908   -0.0000000000
N       -1.0261878050   -0.4221515257   -0.0000000000
H        0.9898789218    0.4272658186    0.0000000000
3    
Image 9/11, Energy =   -92.8282036285 (+0.000 kcal/mol)
C        0.0266043812    0.0163591606    0.0000000000
N       -0.8978319983   -0.6559860677   -0.0000000000
H        0.8712276133    0.6396269080    0.0000000000
3    
Image 10/11, Energy =   -92.8275480250 (+0.411 kcal/mol)
C        0.0194260531    0.0213642916    0.0000000000
N       -0.7589320385   -0.8347584655    0.0000000000
H        0.7395059801    0.8133941739    0.0000000000
