3    
Image 0/11, Energy =   -92.8141878332 (+8.791 kcal/mol)
C       -0.7519862172   -0.8272338407    0.0000000000
N        0.0394753340    0.0434721354    0.0000000000
H        0.7125108832    0.7837617053    0.0000000000
3    
Image 1/11, Energy =   -92.8045889485 (+14.814 kcal/mol)
C       -0.5466552357   -0.9029874265    0.0000000000
N       -0.1436204202    0.1960580981   -0.0000000000
H        0.6902756558    0.7069293336    0.0000000000
3    
Image 2/11, Energy =   -92.7765614444 (+32.402 kcal/mol)
C       -0.3750781612   -0.8687779825    0.0000000000
N       -0.3044993571    0.3178938748   -0.0000000000
H        0.6795775183    0.5508841130    0.0000000000
3    
Image 3/11, Energy =   -92.7424947975 (+53.779 kcal/mol)
C       -0.2119313560   -0.7688320075    0.0000000000
N       -0.4614172650    0.3982291826   -0.0000000000
H        0.6733486157    0.3706028302    0.0000000000
3    
Image 4/11, Energy =   -92.7236070825 (+65.631 kcal/mol)
C       -0.0997256944   -0.6415049325    0.0000000000
N       -0.6426784412    0.4143247743   -0.0000000000
H        0.7424041303    0.2271801635   -0.0000000000
3    
Image 5/11, Energy =   -92.7474910651 (+50.644 kcal/mol)
C       -0.0451435793   -0.4906931518   -0.0000000000
N       -0.8207454013    0.3788851202    0.0000000000
H        0.8658889728    0.1118080369   -0.0000000000
3    
Image 6/11, Energy =   -92.7926798274 (+22.288 kcal/mol)
C       -0.0093232526   -0.3197754372    0.0000000000
N       -0.9695914693    0.3066146048    0.0000000000
H        0.9789147144    0.0131608379   -0.0000000000
3    
Image 7/11, Energy =   -92.8228340348 (+3.366 kcal/mol)
C        0.0253065892   -0.1272822107    0.0000000000
N       -1.0850327547    0.1334241471    0.0000000000
H        1.0597261588   -0.0061419319   -0.0000000000
3    
Image 8/11, Energy =   -92.8280379806 (+0.100 kcal/mol)
C        0.0354154010   -0.0134000229    0.0000000000
N       -1.0836294988   -0.2408889869   -0.0000000000
H        1.0482140941    0.2542890128    0.0000000000
3    
Image 9/11, Energy =   -92.8281973538 (+0.000 kcal/mol)
C        0.0279604222    0.0141019013    0.0000000000
N       -0.9532328303   -0.5715124453    0.0000000000
H        0.9252724052    0.5574105441   -0.0000000000
3    
Image 10/11, Energy =   -92.8275480251 (+0.407 kcal/mol)
C        0.0194260531    0.0213642916    0.0000000000
N       -0.7589320385   -0.8347584655    0.0000000000
H        0.7395059801    0.8133941739    0.0000000000
