3    
Image 0/11, Energy =   -92.8141878331 (+8.384 kcal/mol)
C       -0.7519862172   -0.8272338407    0.0000000000
N        0.0394753340    0.0434721354    0.0000000000
H        0.7125108832    0.7837617053    0.0000000000
3    
Image 1/11, Energy =   -92.8036858993 (+14.974 kcal/mol)
C       -0.6209614127   -0.8472566596    0.0000000000
N       -0.1294979948    0.2143797105   -0.0000000000
H        0.7504594075    0.6328769491    0.0000000000
3    
Image 2/11, Energy =   -92.7728127325 (+34.347 kcal/mol)
C       -0.4542586950   -0.8123644602   -0.0000000000
N       -0.2796906936    0.3638211068    0.0000000000
H        0.7339493887    0.4485433535    0.0000000000
3    
Image 3/11, Energy =   -92.7429165861 (+53.107 kcal/mol)
C       -0.2896109104   -0.7448619825   -0.0000000000
N       -0.4189105331    0.4370122971   -0.0000000000
H        0.7085214434    0.3078496864    0.0000000000
3    
Image 4/11, Energy =   -92.7235686506 (+65.248 kcal/mol)
C       -0.1124186323   -0.6420541141    0.0000000000
N       -0.6357634910    0.4203928171    0.0000000000
H        0.7481821236    0.2216613020    0.0000000000
3    
Image 5/11, Energy =   -92.7362428677 (+57.295 kcal/mol)
C        0.0180137585   -0.5445417383    0.0000000000
N       -0.8301604778    0.3006781156    0.0000000000
H        0.8121467235    0.2438636276    0.0000000000
3    
Image 6/11, Energy =   -92.7675155872 (+37.671 kcal/mol)
C        0.0811913117   -0.4132893760   -0.0000000000
N       -0.9534309419    0.1174916713   -0.0000000000
H        0.8722396314    0.2957977059    0.0000000000
3    
Image 7/11, Energy =   -92.7960159834 (+19.787 kcal/mol)
C        0.1549960610   -0.2515125989   -0.0000000000
N       -1.0435215605   -0.2459132978    0.0000000000
H        0.8885255045    0.4974259011   -0.0000000000
3    
Image 8/11, Energy =   -92.8200218299 (+4.723 kcal/mol)
C        0.1152729280   -0.1065464195   -0.0000000000
N       -0.9638059128   -0.5110895050   -0.0000000000
H        0.8485329897    0.6176359252    0.0000000000
3    
Image 9/11, Energy =   -92.8268034344 (+0.467 kcal/mol)
C        0.0626522836   -0.0290598509   -0.0000000000
N       -0.8550638286   -0.7014315387    0.0000000000
H        0.7924115449    0.7304913897   -0.0000000000
3    
Image 10/11, Energy =   -92.8275480250 (+0.000 kcal/mol)
C        0.0194260531    0.0213642916    0.0000000000
N       -0.7589320385   -0.8347584655    0.0000000000
H        0.7395059801    0.8133941739    0.0000000000
