3    
Image 0/11, Energy =   -92.8141878331 (+8.768 kcal/mol)
C       -0.7519862172   -0.8272338407    0.0000000000
N        0.0394753340    0.0434721354    0.0000000000
H        0.7125108832    0.7837617053    0.0000000000
3    
Image 1/11, Energy =   -92.8036206051 (+15.399 kcal/mol)
C       -0.5464618378   -0.8969371941    0.0000000000
N       -0.1487771597    0.2028047346    0.0000000000
H        0.6952389980    0.6941324617   -0.0000000000
3    
Image 2/11, Energy =   -92.7741590033 (+33.887 kcal/mol)
C       -0.3548171755   -0.8665338625    0.0000000000
N       -0.3182995949    0.3215205285    0.0000000000
H        0.6731167711    0.5450133373   -0.0000000000
3    
Image 3/11, Energy =   -92.7412344467 (+54.547 kcal/mol)
C       -0.1936451054   -0.7677439778    0.0000000000
N       -0.4761892051    0.3907702438   -0.0000000000
H        0.6698343114    0.3769737377   -0.0000000000
3    
Image 4/11, Energy =   -92.7236066442 (+65.609 kcal/mol)
C       -0.0862862385   -0.6432026487    0.0000000000
N       -0.6511402412    0.4011719837    0.0000000000
H        0.7374264805    0.2420306688   -0.0000000000
3    
Image 5/11, Energy =   -92.7468913296 (+50.998 kcal/mol)
C       -0.0315725062   -0.4939023248    0.0000000000
N       -0.8290871933    0.3550560932    0.0000000000
H        0.8606597003    0.1388462354   -0.0000000000
3    
Image 6/11, Energy =   -92.7930305767 (+22.045 kcal/mol)
C        0.0077613459   -0.3176975587    0.0000000000
N       -0.9851375119    0.2529762463    0.0000000000
H        0.9773761665    0.0647213161   -0.0000000000
3    
Image 7/11, Energy =   -92.8228453984 (+3.336 kcal/mol)
C        0.0387646811   -0.1230657949    0.0000000000
N       -1.0923139330    0.0210980305   -0.0000000000
H        1.0535492511    0.1019677676   -0.0000000000
3    
Image 8/11, Energy =   -92.8277922421 (+0.231 kcal/mol)
C        0.0403408003   -0.0221615960    0.0000000000
N       -1.0644429920   -0.3084740153    0.0000000000
H        1.0241021892    0.3306356132   -0.0000000000
3    
Image 9/11, Energy =   -92.8281611581 (+0.000 kcal/mol)
C        0.0311228761    0.0100777584    0.0000000000
N       -0.9365737766   -0.5968196589    0.0000000000
H        0.9054508965    0.5867419014   -0.0000000000
3    
Image 10/11, Energy =   -92.8275480250 (+0.385 kcal/mol)
C        0.0194260531    0.0213642916    0.0000000000
N       -0.7589320385   -0.8347584655    0.0000000000
H        0.7395059801    0.8133941739    0.0000000000
