3    
Image 0/11, Energy =   -92.8141878332 (+8.792 kcal/mol)
C       -0.7519862172   -0.8272338407    0.0000000000
N        0.0394753340    0.0434721354    0.0000000000
H        0.7125108832    0.7837617053    0.0000000000
3    
Image 1/11, Energy =   -92.8041620868 (+15.084 kcal/mol)
C       -0.5408801025   -0.9041765935    0.0000000000
N       -0.1475749350    0.1983987177    0.0000000000
H        0.6884550375    0.7057778758    0.0000000000
3    
Image 2/11, Energy =   -92.7752743416 (+33.211 kcal/mol)
C       -0.3656438999   -0.8673017051    0.0000000000
N       -0.3111989258    0.3208665860    0.0000000000
H        0.6768428257    0.5464351244    0.0000000000
3    
Image 3/11, Energy =   -92.7421506731 (+53.996 kcal/mol)
C       -0.2068312783   -0.7680746173    0.0000000000
N       -0.4645468613    0.3971152593    0.0000000000
H        0.6713781397    0.3709593633    0.0000000000
3    
Image 4/11, Energy =   -92.7236053797 (+65.634 kcal/mol)
C       -0.0975726311   -0.6409582660    0.0000000000
N       -0.6441716258    0.4130583527    0.0000000000
H        0.7417442569    0.2278999133    0.0000000000
3    
Image 5/11, Energy =   -92.7482312831 (+50.181 kcal/mol)
C       -0.0431240127   -0.4879343637    0.0000000000
N       -0.8244689739    0.3758859079    0.0000000000
H        0.8675929866    0.1120484535    0.0000000000
3    
Image 6/11, Energy =   -92.7934223298 (+21.823 kcal/mol)
C       -0.0079925485   -0.3163351120    0.0000000000
N       -0.9727155757    0.3016106438   -0.0000000000
H        0.9807081241    0.0147244635   -0.0000000000
3    
Image 7/11, Energy =   -92.8235515300 (+2.917 kcal/mol)
C        0.0273354329   -0.1182608916   -0.0000000000
N       -1.0892820050    0.1141824501   -0.0000000000
H        1.0619465714    0.0040784435    0.0000000000
3    
Image 8/11, Energy =   -92.8280784857 (+0.076 kcal/mol)
C        0.0347089260   -0.0100684550   -0.0000000000
N       -1.0803315776   -0.2560770006   -0.0000000000
H        1.0456226492    0.2661454574   -0.0000000000
3    
Image 9/11, Energy =   -92.8281994775 (+0.000 kcal/mol)
C        0.0279488574    0.0144106115   -0.0000000000
N       -0.9494983857   -0.5781187120   -0.0000000000
H        0.9215495253    0.5637081026   -0.0000000000
3    
Image 10/11, Energy =   -92.8275480250 (+0.409 kcal/mol)
C        0.0194260531    0.0213642916    0.0000000000
N       -0.7589320385   -0.8347584655    0.0000000000
H        0.7395059801    0.8133941739    0.0000000000
