3    
Image 0/11, Energy =   -92.8141878331 (+8.800 kcal/mol)
C       -0.7519862172   -0.8272338407    0.0000000000
N        0.0394753340    0.0434721354    0.0000000000
H        0.7125108832    0.7837617053    0.0000000000
3    
Image 1/11, Energy =   -92.8046201775 (+14.803 kcal/mol)
C       -0.5681757112   -0.8885774493   -0.0000000000
N       -0.1378020078    0.1985221100    0.0000000000
H        0.7059777195    0.6900553421    0.0000000000
3    
Image 2/11, Energy =   -92.7766132925 (+32.378 kcal/mol)
C       -0.3761628042   -0.8682645029   -0.0000000000
N       -0.3040966183    0.3176188631    0.0000000000
H        0.6802594235    0.5506456434   -0.0000000000
3    
Image 3/11, Energy =   -92.7432945373 (+53.286 kcal/mol)
C       -0.2094591160   -0.7742057304    0.0000000000
N       -0.4618598517    0.3908829525    0.0000000000
H        0.6713189689    0.3833227813   -0.0000000000
3    
Image 4/11, Energy =   -92.7235768269 (+65.659 kcal/mol)
C       -0.0838608622   -0.6398132639    0.0000000000
N       -0.6511462387    0.4004579546    0.0000000000
H        0.7350071019    0.2393553131   -0.0000000000
3    
Image 5/11, Energy =   -92.7507040806 (+48.636 kcal/mol)
C       -0.0194550553   -0.4790307115    0.0000000000
N       -0.8493650752    0.3322794605    0.0000000000
H        0.8688201321    0.1467512547   -0.0000000000
3    
Image 6/11, Energy =   -92.8032457247 (+15.666 kcal/mol)
C        0.0252304706   -0.2674716001    0.0000000000
N       -1.0260160456    0.1776621827    0.0000000000
H        1.0007855759    0.0898094205   -0.0000000000
3    
Image 7/11, Energy =   -92.8263022255 (+1.198 kcal/mol)
C        0.0443445725   -0.0659219493    0.0000000000
N       -1.0902833846   -0.1592230468    0.0000000000
H        1.0459388141    0.2251449997   -0.0000000000
3    
Image 8/11, Energy =   -92.8281528246 (+0.036 kcal/mol)
C        0.0327502444    0.0048111744    0.0000000000
N       -1.0051875512   -0.4721047709    0.0000000000
H        0.9724373079    0.4672935985   -0.0000000000
3    
Image 9/11, Energy =   -92.8282108903 (+0.000 kcal/mol)
C        0.0256584698    0.0177179098   -0.0000000000
N       -0.8839021646   -0.6759714453   -0.0000000000
H        0.8582436932    0.6582535366   -0.0000000000
3    
Image 10/11, Energy =   -92.8275480250 (+0.416 kcal/mol)
C        0.0194260531    0.0213642916    0.0000000000
N       -0.7589320385   -0.8347584655    0.0000000000
H        0.7395059801    0.8133941739    0.0000000000
