3    
Image 0/11, Energy =   -92.8141878331 (+8.795 kcal/mol)
C       -0.7519862172   -0.8272338407    0.0000000000
N        0.0394753340    0.0434721354    0.0000000000
H        0.7125108832    0.7837617053    0.0000000000
3    
Image 1/11, Energy =   -92.8031755868 (+15.705 kcal/mol)
C       -0.6008345513   -0.8597635590   -0.0000000000
N       -0.1388429818    0.2155793493    0.0000000000
H        0.7396775332    0.6441842106    0.0000000000
3    
Image 2/11, Energy =   -92.7764657202 (+32.466 kcal/mol)
C       -0.4150357155   -0.8494875502   -0.0000000000
N       -0.2908678473    0.3307719305    0.0000000000
H        0.7059035631    0.5187156228    0.0000000000
3    
Image 3/11, Energy =   -92.7433564073 (+53.243 kcal/mol)
C       -0.2180896922   -0.7738665741   -0.0000000000
N       -0.4597296741    0.3935703025    0.0000000000
H        0.6778193673    0.3802962760   -0.0000000000
3    
Image 4/11, Energy =   -92.7237030567 (+65.575 kcal/mol)
C       -0.0996283461   -0.6562497290    0.0000000000
N       -0.6373351878    0.4025147211    0.0000000000
H        0.7369635352    0.2537350115   -0.0000000000
3    
Image 5/11, Energy =   -92.7487410623 (+49.864 kcal/mol)
C       -0.0345842755   -0.4848271025    0.0000000000
N       -0.8343407198    0.3515954329    0.0000000000
H        0.8689249958    0.1332316734   -0.0000000000
3    
Image 6/11, Energy =   -92.8034030725 (+15.563 kcal/mol)
C        0.0290702638   -0.2643218880    0.0000000000
N       -1.0292917025    0.1479308054    0.0000000000
H        1.0002214417    0.1163910878   -0.0000000000
3    
Image 7/11, Energy =   -92.8257763490 (+1.523 kcal/mol)
C        0.0506286556   -0.0760570703    0.0000000000
N       -1.0824389811   -0.2162088208    0.0000000000
H        1.0318103287    0.2922658937   -0.0000000000
3    
Image 8/11, Energy =   -92.8280070095 (+0.124 kcal/mol)
C        0.0387109246   -0.0076362615    0.0000000000
N       -0.9920825580   -0.5002646748   -0.0000000000
H        0.9533716357    0.5079009387   -0.0000000000
3    
Image 9/11, Energy =   -92.8282038518 (+0.000 kcal/mol)
C        0.0268281091    0.0155432444   -0.0000000000
N       -0.8652068445   -0.6992748475    0.0000000000
H        0.8383787349    0.6837316039    0.0000000000
3    
Image 10/11, Energy =   -92.8275480250 (+0.412 kcal/mol)
C        0.0194260531    0.0213642916    0.0000000000
N       -0.7589320385   -0.8347584655    0.0000000000
H        0.7395059801    0.8133941739    0.0000000000
