3    
Image 0/11, Energy =   -92.8141878332 (+8.793 kcal/mol)
C       -0.7519862172   -0.8272338407    0.0000000000
N        0.0394753340    0.0434721354    0.0000000000
H        0.7125108832    0.7837617053    0.0000000000
3    
Image 1/11, Energy =   -92.8041620868 (+15.085 kcal/mol)
C       -0.5408801025   -0.9041765935    0.0000000000
N       -0.1475749350    0.1983987177    0.0000000000
H        0.6884550375    0.7057778758    0.0000000000
3    
Image 2/11, Energy =   -92.7752743416 (+33.212 kcal/mol)
C       -0.3656438999   -0.8673017051    0.0000000000
N       -0.3111989258    0.3208665860    0.0000000000
H        0.6768428257    0.5464351244    0.0000000000
3    
Image 3/11, Energy =   -92.7421506731 (+53.997 kcal/mol)
C       -0.2068312783   -0.7680746173    0.0000000000
N       -0.4645468613    0.3971152593    0.0000000000
H        0.6713781397    0.3709593633    0.0000000000
3    
Image 4/11, Energy =   -92.7236053797 (+65.635 kcal/mol)
C       -0.0975726311   -0.6409582660    0.0000000000
N       -0.6441716258    0.4130583527    0.0000000000
H        0.7417442569    0.2278999133    0.0000000000
3    
Image 5/11, Energy =   -92.7492182856 (+49.562 kcal/mol)
C       -0.0415103807   -0.4842665570   -0.0000000000
N       -0.8287188488    0.3733548573   -0.0000000000
H        0.8702292294    0.1109117018   -0.0000000000
3    
Image 6/11, Energy =   -92.7958530186 (+20.299 kcal/mol)
C       -0.0050597289   -0.3054062120   -0.0000000000
N       -0.9815264715    0.2926758532    0.0000000000
H        0.9865862004    0.0127303635    0.0000000000
3    
Image 7/11, Energy =   -92.8246081967 (+2.255 kcal/mol)
C        0.0296190513   -0.1037237411    0.0000000000
N       -1.0951107946    0.0856480441   -0.0000000000
H        1.0654917432    0.0180757004   -0.0000000000
3    
Image 8/11, Energy =   -92.8281170674 (+0.053 kcal/mol)
C        0.0340654642   -0.0061874232   -0.0000000000
N       -1.0752348603   -0.2777624678   -0.0000000000
H        1.0411693949    0.2839498951   -0.0000000000
3    
Image 9/11, Energy =   -92.8282010512 (+0.000 kcal/mol)
C        0.0274292653    0.0148792474   -0.0000000000
N       -0.9429819067   -0.5886842618   -0.0000000000
H        0.9155526372    0.5738050155   -0.0000000000
3    
Image 10/11, Energy =   -92.8275480250 (+0.410 kcal/mol)
C        0.0194260531    0.0213642916    0.0000000000
N       -0.7589320385   -0.8347584655    0.0000000000
H        0.7395059801    0.8133941739    0.0000000000
