3    
Image 0/11, Energy =   -92.8141878332 (+8.802 kcal/mol)
C       -0.7519862172   -0.8272338407    0.0000000000
N        0.0394753340    0.0434721354    0.0000000000
H        0.7125108832    0.7837617053    0.0000000000
3    
Image 1/11, Energy =   -92.8052048947 (+14.439 kcal/mol)
C       -0.5481628562   -0.9056101610    0.0000000000
N       -0.1393830336    0.1915579222    0.0000000000
H        0.6875458899    0.7140522388    0.0000000000
3    
Image 2/11, Energy =   -92.7764947654 (+32.455 kcal/mol)
C       -0.3819098337   -0.8658082611   -0.0000000000
N       -0.3020006511    0.3210342293    0.0000000000
H        0.6839104848    0.5447740371    0.0000000000
3    
Image 3/11, Energy =   -92.7438698119 (+52.927 kcal/mol)
C       -0.2264545293   -0.7712647674   -0.0000000000
N       -0.4485576502    0.4019511558    0.0000000000
H        0.6750121795    0.3693136169    0.0000000000
3    
Image 4/11, Energy =   -92.7236059901 (+65.643 kcal/mol)
C       -0.1061811537   -0.6387259266   -0.0000000000
N       -0.6401450582    0.4214046679    0.0000000000
H        0.7463262118    0.2173212587    0.0000000000
3    
Image 5/11, Energy =   -92.7544927638 (+46.261 kcal/mol)
C       -0.0438466288   -0.4644417879   -0.0000000000
N       -0.8423399715    0.3791244195    0.0000000000
H        0.8861866004    0.0853173737    0.0000000000
3    
Image 6/11, Energy =   -92.8040937836 (+15.136 kcal/mol)
C       -0.0040149733   -0.2651173699   -0.0000000000
N       -1.0030581074    0.2912869822   -0.0000000000
H        1.0070730860   -0.0261696070    0.0000000000
3    
Image 7/11, Energy =   -92.8278122180 (+0.253 kcal/mol)
C        0.0322391493   -0.0331415466    0.0000000000
N       -1.1097302785   -0.0237985115    0.0000000000
H        1.0774911293    0.0569400582   -0.0000000000
3    
Image 8/11, Energy =   -92.8282102537 (+0.003 kcal/mol)
C        0.0295899127    0.0088314448   -0.0000000000
N       -1.0406656413   -0.3934295479   -0.0000000000
H        1.0110757337    0.3845981031    0.0000000000
3    
Image 9/11, Energy =   -92.8282149642 (+0.000 kcal/mol)
C        0.0249929685    0.0177323021   -0.0000000000
N       -0.9041432129   -0.6493205000   -0.0000000000
H        0.8791502392    0.6315882031    0.0000000000
3    
Image 10/11, Energy =   -92.8275480250 (+0.419 kcal/mol)
C        0.0194260531    0.0213642916    0.0000000000
N       -0.7589320385   -0.8347584655    0.0000000000
H        0.7395059801    0.8133941739    0.0000000000
