3    
Image 0/11, Energy =   -92.8141878332 (+8.801 kcal/mol)
C       -0.7519862172   -0.8272338407    0.0000000000
N        0.0394753340    0.0434721354    0.0000000000
H        0.7125108832    0.7837617053    0.0000000000
3    
Image 1/11, Energy =   -92.8052048947 (+14.438 kcal/mol)
C       -0.5481628562   -0.9056101610    0.0000000000
N       -0.1393830336    0.1915579222    0.0000000000
H        0.6875458899    0.7140522388    0.0000000000
3    
Image 2/11, Energy =   -92.7764947654 (+32.454 kcal/mol)
C       -0.3819098337   -0.8658082611   -0.0000000000
N       -0.3020006511    0.3210342293    0.0000000000
H        0.6839104848    0.5447740371    0.0000000000
3    
Image 3/11, Energy =   -92.7438698119 (+52.927 kcal/mol)
C       -0.2264545293   -0.7712647674   -0.0000000000
N       -0.4485576502    0.4019511558    0.0000000000
H        0.6750121795    0.3693136169    0.0000000000
3    
Image 4/11, Energy =   -92.7236059901 (+65.642 kcal/mol)
C       -0.1061811537   -0.6387259266   -0.0000000000
N       -0.6401450582    0.4214046679    0.0000000000
H        0.7463262118    0.2173212587    0.0000000000
3    
Image 5/11, Energy =   -92.7544927638 (+46.261 kcal/mol)
C       -0.0438466288   -0.4644417879   -0.0000000000
N       -0.8423399715    0.3791244195    0.0000000000
H        0.8861866004    0.0853173737    0.0000000000
3    
Image 6/11, Energy =   -92.8040937831 (+15.136 kcal/mol)
C       -0.0040149747   -0.2651173719   -0.0000000000
N       -1.0030581080    0.2912869839   -0.0000000000
H        1.0070730844   -0.0261696071    0.0000000000
3    
Image 7/11, Energy =   -92.8278035059 (+0.257 kcal/mol)
C        0.0320705664   -0.0336311756   -0.0000000000
N       -1.1097692597   -0.0196893351    0.0000000000
H        1.0776986958    0.0533205106   -0.0000000000
3    
Image 8/11, Energy =   -92.8282100811 (+0.002 kcal/mol)
C        0.0295533976    0.0086587155    0.0000000000
N       -1.0421821501   -0.3893029982    0.0000000000
H        1.0126287547    0.3806442838    0.0000000000
3    
Image 9/11, Energy =   -92.8282137878 (+0.000 kcal/mol)
C        0.0248152358    0.0175176951   -0.0000000000
N       -0.9053234755   -0.6472886470   -0.0000000000
H        0.8805082364    0.6297709584    0.0000000000
3    
Image 10/11, Energy =   -92.8275480250 (+0.418 kcal/mol)
C        0.0194260531    0.0213642916    0.0000000000
N       -0.7589320385   -0.8347584655    0.0000000000
H        0.7395059801    0.8133941739    0.0000000000
