3    
Image 0/11, Energy =   -92.8141878331 (+8.753 kcal/mol)
C       -0.7519862172   -0.8272338407    0.0000000000
N        0.0394753340    0.0434721354    0.0000000000
H        0.7125108832    0.7837617053    0.0000000000
3    
Image 1/11, Energy =   -92.8033968805 (+15.524 kcal/mol)
C       -0.5451108988   -0.8968142860    0.0000000000
N       -0.1505440392    0.2044127403    0.0000000000
H        0.6956549385    0.6924015480   -0.0000000000
3    
Image 2/11, Energy =   -92.7741021987 (+33.907 kcal/mol)
C       -0.3555261555   -0.8659820094    0.0000000000
N       -0.3182529514    0.3219776671    0.0000000000
H        0.6737791076    0.5440043455   -0.0000000000
3    
Image 3/11, Energy =   -92.7412344467 (+54.532 kcal/mol)
C       -0.1936451054   -0.7677439778    0.0000000000
N       -0.4761892051    0.3907702438   -0.0000000000
H        0.6698343114    0.3769737377   -0.0000000000
3    
Image 4/11, Energy =   -92.7236066442 (+65.593 kcal/mol)
C       -0.0862862385   -0.6432026487    0.0000000000
N       -0.6511402412    0.4011719837    0.0000000000
H        0.7374264805    0.2420306688   -0.0000000000
3    
Image 5/11, Energy =   -92.7447465862 (+52.328 kcal/mol)
C       -0.0342647772   -0.5022186330    0.0000000000
N       -0.8201376415    0.3594730777    0.0000000000
H        0.8544024195    0.1427455591   -0.0000000000
3    
Image 6/11, Energy =   -92.7881923498 (+25.065 kcal/mol)
C        0.0019140283   -0.3387696818    0.0000000000
N       -0.9678927592    0.2734930498   -0.0000000000
H        0.9659787313    0.0652766357   -0.0000000000
3    
Image 7/11, Energy =   -92.8197031932 (+5.292 kcal/mol)
C        0.0340278619   -0.1565709269    0.0000000000
N       -1.0805013803    0.0800637525   -0.0000000000
H        1.0464735180    0.0765071776   -0.0000000000
3    
Image 8/11, Energy =   -92.8275840669 (+0.346 kcal/mol)
C        0.0411939180   -0.0308946791    0.0000000000
N       -1.0766732999   -0.2560155778   -0.0000000000
H        1.0354793793    0.2869102590   -0.0000000000
3    
Image 9/11, Energy =   -92.8281360595 (+0.000 kcal/mol)
C        0.0316707830    0.0091804568    0.0000000000
N       -0.9497212416   -0.5737112965    0.0000000000
H        0.9180504543    0.5645308406   -0.0000000000
3    
Image 10/11, Energy =   -92.8275480250 (+0.369 kcal/mol)
C        0.0194260531    0.0213642916    0.0000000000
N       -0.7589320385   -0.8347584655    0.0000000000
H        0.7395059801    0.8133941739    0.0000000000
