3    
Image 0/11, Energy =   -92.8141878332 (+8.791 kcal/mol)
C       -0.7519862172   -0.8272338407    0.0000000000
N        0.0394753340    0.0434721354    0.0000000000
H        0.7125108832    0.7837617053    0.0000000000
3    
Image 1/11, Energy =   -92.8041620868 (+15.082 kcal/mol)
C       -0.5408801025   -0.9041765935    0.0000000000
N       -0.1475749350    0.1983987177    0.0000000000
H        0.6884550375    0.7057778758    0.0000000000
3    
Image 2/11, Energy =   -92.7752743416 (+33.209 kcal/mol)
C       -0.3656438999   -0.8673017051    0.0000000000
N       -0.3111989258    0.3208665860    0.0000000000
H        0.6768428257    0.5464351244    0.0000000000
3    
Image 3/11, Energy =   -92.7421506731 (+53.995 kcal/mol)
C       -0.2068312783   -0.7680746173    0.0000000000
N       -0.4645468613    0.3971152593    0.0000000000
H        0.6713781397    0.3709593633    0.0000000000
3    
Image 4/11, Energy =   -92.7236053797 (+65.632 kcal/mol)
C       -0.0975726311   -0.6409582660    0.0000000000
N       -0.6441716258    0.4130583527    0.0000000000
H        0.7417442569    0.2278999133    0.0000000000
3    
Image 5/11, Energy =   -92.7469448479 (+50.986 kcal/mol)
C       -0.0446451318   -0.4928603750   -0.0000000000
N       -0.8193381068    0.3781920434    0.0000000000
H        0.8639832386    0.1146683290    0.0000000000
3    
Image 6/11, Energy =   -92.7919691554 (+22.733 kcal/mol)
C       -0.0096078084   -0.3228873779   -0.0000000000
N       -0.9675597355    0.3074489795    0.0000000000
H        0.9771675439    0.0154383955    0.0000000000
3    
Image 7/11, Energy =   -92.8223669033 (+3.658 kcal/mol)
C        0.0246726697   -0.1326076727   -0.0000000000
N       -1.0828802111    0.1393438343   -0.0000000000
H        1.0582075406   -0.0067361648   -0.0000000000
3    
Image 8/11, Energy =   -92.8280483853 (+0.093 kcal/mol)
C        0.0351303208   -0.0127798038   -0.0000000000
N       -1.0848771478   -0.2351088099   -0.0000000000
H        1.0497468243    0.2478886136    0.0000000000
3    
Image 9/11, Energy =   -92.8281964386 (+0.000 kcal/mol)
C        0.0281669844    0.0138009956   -0.0000000000
N       -0.9545950016   -0.5691865878   -0.0000000000
H        0.9264280145    0.5553855943   -0.0000000000
3    
Image 10/11, Energy =   -92.8275480250 (+0.407 kcal/mol)
C        0.0194260531    0.0213642916    0.0000000000
N       -0.7589320385   -0.8347584655    0.0000000000
H        0.7395059801    0.8133941739    0.0000000000
