3    
Image 0/11, Energy =   -92.8141878331 (+8.790 kcal/mol)
C       -0.7519862172   -0.8272338407    0.0000000000
N        0.0394753340    0.0434721354    0.0000000000
H        0.7125108832    0.7837617053    0.0000000000
3    
Image 1/11, Energy =   -92.8044896196 (+14.875 kcal/mol)
C       -0.5469845282   -0.9006411047    0.0000000000
N       -0.1433278720    0.1957118550    0.0000000000
H        0.6903124010    0.7049292520   -0.0000000000
3    
Image 2/11, Energy =   -92.7760179853 (+32.742 kcal/mol)
C       -0.3633368805   -0.8708588074    0.0000000000
N       -0.3106016019    0.3153703784    0.0000000000
H        0.6739384833    0.5554884324   -0.0000000000
3    
Image 3/11, Energy =   -92.7417974398 (+54.215 kcal/mol)
C       -0.1961943848   -0.7711203913    0.0000000000
N       -0.4744220767    0.3889425963    0.0000000000
H        0.6706164624    0.3821777988   -0.0000000000
3    
Image 4/11, Energy =   -92.7235997384 (+65.635 kcal/mol)
C       -0.0866423728   -0.6417949535    0.0000000000
N       -0.6538719705    0.3996687922    0.0000000000
H        0.7405143442    0.2421261651   -0.0000000000
3    
Image 5/11, Energy =   -92.7519220846 (+47.862 kcal/mol)
C       -0.0243140720   -0.4753022129    0.0000000000
N       -0.8504081344    0.3411225688    0.0000000000
H        0.8747222072    0.1341796477   -0.0000000000
3    
Image 6/11, Energy =   -92.8001185808 (+17.618 kcal/mol)
C        0.0208781589   -0.2835823930    0.0000000000
N       -1.0141934661    0.1989824109    0.0000000000
H        0.9933153082    0.0845999857   -0.0000000000
3    
Image 7/11, Energy =   -92.8248898970 (+2.074 kcal/mol)
C        0.0457214511   -0.0913258824    0.0000000000
N       -1.0929198865   -0.0979282548    0.0000000000
H        1.0471984361    0.1892541400   -0.0000000000
3    
Image 8/11, Energy =   -92.8279971632 (+0.124 kcal/mol)
C        0.0378179493   -0.0077971260    0.0000000000
N       -1.0292384539   -0.4125561330    0.0000000000
H        0.9914205043    0.4203532612   -0.0000000000
3    
Image 9/11, Energy =   -92.8281950339 (+0.000 kcal/mol)
C        0.0277553553    0.0150508238    0.0000000000
N       -0.9015025905   -0.6502671947    0.0000000000
H        0.8737472327    0.6352163720   -0.0000000000
3    
Image 10/11, Energy =   -92.8275480250 (+0.406 kcal/mol)
C        0.0194260531    0.0213642916    0.0000000000
N       -0.7589320385   -0.8347584655    0.0000000000
H        0.7395059801    0.8133941739    0.0000000000
