3    
Image 0/11, Energy =   -92.8141878332 (+8.794 kcal/mol)
C       -0.7519862172   -0.8272338407    0.0000000000
N        0.0394753340    0.0434721354    0.0000000000
H        0.7125108832    0.7837617053    0.0000000000
3    
Image 1/11, Energy =   -92.8041620868 (+15.085 kcal/mol)
C       -0.5408801025   -0.9041765935    0.0000000000
N       -0.1475749350    0.1983987177    0.0000000000
H        0.6884550375    0.7057778758    0.0000000000
3    
Image 2/11, Energy =   -92.7752743416 (+33.212 kcal/mol)
C       -0.3656438999   -0.8673017051    0.0000000000
N       -0.3111989258    0.3208665860    0.0000000000
H        0.6768428257    0.5464351244    0.0000000000
3    
Image 3/11, Energy =   -92.7421506731 (+53.998 kcal/mol)
C       -0.2068312783   -0.7680746173    0.0000000000
N       -0.4645468613    0.3971152593    0.0000000000
H        0.6713781397    0.3709593633    0.0000000000
3    
Image 4/11, Energy =   -92.7236053797 (+65.635 kcal/mol)
C       -0.0975726311   -0.6409582660    0.0000000000
N       -0.6441716258    0.4130583527    0.0000000000
H        0.7417442569    0.2278999133    0.0000000000
3    
Image 5/11, Energy =   -92.7493847425 (+49.458 kcal/mol)
C       -0.0411958765   -0.4836401267   -0.0000000000
N       -0.8294661342    0.3727997660   -0.0000000000
H        0.8706620107    0.1108403644   -0.0000000000
3    
Image 6/11, Energy =   -92.7962744038 (+20.034 kcal/mol)
C       -0.0042301601   -0.3035311443   -0.0000000000
N       -0.9833331378    0.2904963289   -0.0000000000
H        0.9875632979    0.0130348180    0.0000000000
3    
Image 7/11, Energy =   -92.8249381758 (+2.048 kcal/mol)
C        0.0297741474   -0.0987376644    0.0000000000
N       -1.0963591362    0.0805226890    0.0000000000
H        1.0665849889    0.0182149797   -0.0000000000
3    
Image 8/11, Energy =   -92.8281180084 (+0.052 kcal/mol)
C        0.0339626497   -0.0059022808   -0.0000000000
N       -1.0741763336   -0.2816021006   -0.0000000000
H        1.0402136835    0.2875043862   -0.0000000000
3    
Image 9/11, Energy =   -92.8282012507 (+0.000 kcal/mol)
C        0.0276918522    0.0146025044   -0.0000000000
N       -0.9412807242   -0.5915823259   -0.0000000000
H        0.9135888672    0.5769798219    0.0000000000
3    
Image 10/11, Energy =   -92.8275480250 (+0.410 kcal/mol)
C        0.0194260531    0.0213642916    0.0000000000
N       -0.7589320385   -0.8347584655    0.0000000000
H        0.7395059801    0.8133941739    0.0000000000
