3    
Image 0/11, Energy =   -92.8141878331 (+8.765 kcal/mol)
C       -0.7519862172   -0.8272338407    0.0000000000
N        0.0394753340    0.0434721354    0.0000000000
H        0.7125108832    0.7837617053    0.0000000000
3    
Image 1/11, Energy =   -92.8035360924 (+15.449 kcal/mol)
C       -0.5463832348   -0.8966869669    0.0000000000
N       -0.1493924482    0.2035283351    0.0000000000
H        0.6957756835    0.6931586341   -0.0000000000
3    
Image 2/11, Energy =   -92.7741590033 (+33.884 kcal/mol)
C       -0.3548171755   -0.8665338625    0.0000000000
N       -0.3182995949    0.3215205285    0.0000000000
H        0.6731167711    0.5450133373   -0.0000000000
3    
Image 3/11, Energy =   -92.7412344467 (+54.544 kcal/mol)
C       -0.1936451054   -0.7677439778    0.0000000000
N       -0.4761892051    0.3907702438   -0.0000000000
H        0.6698343114    0.3769737377   -0.0000000000
3    
Image 4/11, Energy =   -92.7236066442 (+65.606 kcal/mol)
C       -0.0862862385   -0.6432026487    0.0000000000
N       -0.6511402412    0.4011719837    0.0000000000
H        0.7374264805    0.2420306688   -0.0000000000
3    
Image 5/11, Energy =   -92.7468913296 (+50.995 kcal/mol)
C       -0.0315725062   -0.4939023248    0.0000000000
N       -0.8290871933    0.3550560932    0.0000000000
H        0.8606597003    0.1388462354   -0.0000000000
3    
Image 6/11, Energy =   -92.7917353301 (+22.854 kcal/mol)
C        0.0060954176   -0.3233802019    0.0000000000
N       -0.9803845711    0.2587746344    0.0000000000
H        0.9742891540    0.0646055712   -0.0000000000
3    
Image 7/11, Energy =   -92.8224140342 (+3.603 kcal/mol)
C        0.0373156035   -0.1281977045    0.0000000000
N       -1.0903586785    0.0359483884   -0.0000000000
H        1.0530430740    0.0922493192   -0.0000000000
3    
Image 8/11, Energy =   -92.8277668028 (+0.244 kcal/mol)
C        0.0401420706   -0.0233819970    0.0000000000
N       -1.0676419279   -0.2957250234    0.0000000000
H        1.0274998547    0.3191070224   -0.0000000000
3    
Image 9/11, Energy =   -92.8281562534 (+0.000 kcal/mol)
C        0.0312286982    0.0098428316    0.0000000000
N       -0.9404850370   -0.5901914777    0.0000000000
H        0.9092563346    0.5803486470   -0.0000000000
3    
Image 10/11, Energy =   -92.8275480250 (+0.382 kcal/mol)
C        0.0194260531    0.0213642916    0.0000000000
N       -0.7589320385   -0.8347584655    0.0000000000
H        0.7395059801    0.8133941739    0.0000000000
