3    
Image 0/11, Energy =   -92.8141878332 (+8.793 kcal/mol)
C       -0.7519862172   -0.8272338407    0.0000000000
N        0.0394753340    0.0434721354    0.0000000000
H        0.7125108832    0.7837617053    0.0000000000
3    
Image 1/11, Energy =   -92.8041620868 (+15.084 kcal/mol)
C       -0.5408801025   -0.9041765935    0.0000000000
N       -0.1475749350    0.1983987177    0.0000000000
H        0.6884550375    0.7057778758    0.0000000000
3    
Image 2/11, Energy =   -92.7752743416 (+33.211 kcal/mol)
C       -0.3656438999   -0.8673017051    0.0000000000
N       -0.3111989258    0.3208665860    0.0000000000
H        0.6768428257    0.5464351244    0.0000000000
3    
Image 3/11, Energy =   -92.7421506731 (+53.997 kcal/mol)
C       -0.2068312783   -0.7680746173    0.0000000000
N       -0.4645468613    0.3971152593    0.0000000000
H        0.6713781397    0.3709593633    0.0000000000
3    
Image 4/11, Energy =   -92.7236053797 (+65.634 kcal/mol)
C       -0.0975726311   -0.6409582660    0.0000000000
N       -0.6441716258    0.4130583527    0.0000000000
H        0.7417442569    0.2278999133    0.0000000000
3    
Image 5/11, Energy =   -92.7486615676 (+49.911 kcal/mol)
C       -0.0424906040   -0.4863444496   -0.0000000000
N       -0.8262729988    0.3749645632    0.0000000000
H        0.8687636028    0.1113798849    0.0000000000
3    
Image 6/11, Energy =   -92.7946232554 (+21.070 kcal/mol)
C       -0.0065015999   -0.3109762331   -0.0000000000
N       -0.9771085585    0.2970499567   -0.0000000000
H        0.9836101584    0.0139262764   -0.0000000000
3    
Image 7/11, Energy =   -92.8240643682 (+2.595 kcal/mol)
C        0.0284440942   -0.1113193759    0.0000000000
N       -1.0920705252    0.0998749304   -0.0000000000
H        1.0636264307    0.0114444492    0.0000000000
3    
Image 8/11, Energy =   -92.8280971218 (+0.065 kcal/mol)
C        0.0343471844   -0.0082506583   -0.0000000000
N       -1.0777732149   -0.2670421596   -0.0000000000
H        1.0434260285    0.2752928205   -0.0000000000
3    
Image 9/11, Energy =   -92.8282001298 (+0.000 kcal/mol)
C        0.0275989946    0.0145825791   -0.0000000000
N       -0.9470602995   -0.5819841890   -0.0000000000
H        0.9194613016    0.5674016117   -0.0000000000
3    
Image 10/11, Energy =   -92.8275480250 (+0.409 kcal/mol)
C        0.0194260531    0.0213642916    0.0000000000
N       -0.7589320385   -0.8347584655    0.0000000000
H        0.7395059801    0.8133941739    0.0000000000
