3    
Image 0/11, Energy =   -92.8141878332 (+8.794 kcal/mol)
C       -0.7519862172   -0.8272338407    0.0000000000
N        0.0394753340    0.0434721354    0.0000000000
H        0.7125108832    0.7837617053    0.0000000000
3    
Image 1/11, Energy =   -92.8041620868 (+15.085 kcal/mol)
C       -0.5408801025   -0.9041765935    0.0000000000
N       -0.1475749350    0.1983987177    0.0000000000
H        0.6884550375    0.7057778758    0.0000000000
3    
Image 2/11, Energy =   -92.7752743416 (+33.212 kcal/mol)
C       -0.3656438999   -0.8673017051    0.0000000000
N       -0.3111989258    0.3208665860    0.0000000000
H        0.6768428257    0.5464351244    0.0000000000
3    
Image 3/11, Energy =   -92.7421506731 (+53.998 kcal/mol)
C       -0.2068312783   -0.7680746173    0.0000000000
N       -0.4645468613    0.3971152593    0.0000000000
H        0.6713781397    0.3709593633    0.0000000000
3    
Image 4/11, Energy =   -92.7236053797 (+65.635 kcal/mol)
C       -0.0975726311   -0.6409582660    0.0000000000
N       -0.6441716258    0.4130583527    0.0000000000
H        0.7417442569    0.2278999133    0.0000000000
3    
Image 5/11, Energy =   -92.7493240788 (+49.496 kcal/mol)
C       -0.0413012080   -0.4838781534   -0.0000000000
N       -0.8292012123    0.3730137689   -0.0000000000
H        0.8705024203    0.1108643876   -0.0000000000
3    
Image 6/11, Energy =   -92.7961613939 (+20.105 kcal/mol)
C       -0.0044573457   -0.3040490840   -0.0000000000
N       -0.9828455615    0.2911604992   -0.0000000000
H        0.9873029071    0.0128885883    0.0000000000
3    
Image 7/11, Energy =   -92.8248358324 (+2.112 kcal/mol)
C        0.0296319652   -0.1002950798    0.0000000000
N       -1.0959503930    0.0819344451    0.0000000000
H        1.0663184278    0.0183606386   -0.0000000000
3    
Image 8/11, Energy =   -92.8281170405 (+0.053 kcal/mol)
C        0.0339136698   -0.0059521142   -0.0000000000
N       -1.0744001307   -0.2805306305   -0.0000000000
H        1.0404864603    0.2864827493   -0.0000000000
3    
Image 9/11, Energy =   -92.8282012760 (+0.000 kcal/mol)
C        0.0276150584    0.0147192657   -0.0000000000
N       -0.9417825355   -0.5907467543   -0.0000000000
H        0.9141674724    0.5760274893    0.0000000000
3    
Image 10/11, Energy =   -92.8275480250 (+0.410 kcal/mol)
C        0.0194260531    0.0213642916    0.0000000000
N       -0.7589320385   -0.8347584655    0.0000000000
H        0.7395059801    0.8133941739    0.0000000000
