3    
Image 0/11, Energy =   -92.8141878332 (+8.792 kcal/mol)
C       -0.7519862172   -0.8272338407    0.0000000000
N        0.0394753340    0.0434721354    0.0000000000
H        0.7125108832    0.7837617053    0.0000000000
3    
Image 1/11, Energy =   -92.8041620868 (+15.083 kcal/mol)
C       -0.5408801025   -0.9041765935    0.0000000000
N       -0.1475749350    0.1983987177    0.0000000000
H        0.6884550375    0.7057778758    0.0000000000
3    
Image 2/11, Energy =   -92.7752743416 (+33.210 kcal/mol)
C       -0.3656438999   -0.8673017051    0.0000000000
N       -0.3111989258    0.3208665860    0.0000000000
H        0.6768428257    0.5464351244    0.0000000000
3    
Image 3/11, Energy =   -92.7421506731 (+53.996 kcal/mol)
C       -0.2068312783   -0.7680746173    0.0000000000
N       -0.4645468613    0.3971152593    0.0000000000
H        0.6713781397    0.3709593633    0.0000000000
3    
Image 4/11, Energy =   -92.7236053797 (+65.633 kcal/mol)
C       -0.0975726311   -0.6409582660    0.0000000000
N       -0.6441716258    0.4130583527    0.0000000000
H        0.7417442569    0.2278999133    0.0000000000
3    
Image 5/11, Energy =   -92.7478147512 (+50.441 kcal/mol)
C       -0.0436450871   -0.4894878750   -0.0000000000
N       -0.8227931684    0.3765908898    0.0000000000
H        0.8664382555    0.1128969828    0.0000000000
3    
Image 6/11, Energy =   -92.7929032359 (+22.148 kcal/mol)
C       -0.0085456933   -0.3187355705    0.0000000000
N       -0.9708939731    0.3038600303   -0.0000000000
H        0.9794396663    0.0148755361   -0.0000000000
3    
Image 7/11, Energy =   -92.8229477281 (+3.295 kcal/mol)
C        0.0260422661   -0.1258318195   -0.0000000000
N       -1.0861244465    0.1272183290   -0.0000000000
H        1.0600821796   -0.0013865105    0.0000000000
3    
Image 8/11, Energy =   -92.8280647643 (+0.084 kcal/mol)
C        0.0348895628   -0.0113909970   -0.0000000000
N       -1.0826661502   -0.2456303084   -0.0000000000
H        1.0477765847    0.2570213062   -0.0000000000
3    
Image 9/11, Energy =   -92.8281982744 (+0.000 kcal/mol)
C        0.0279766136    0.0141156045   -0.0000000000
N       -0.9516178898   -0.5743599643   -0.0000000000
H        0.9236412734    0.5602443620   -0.0000000000
3    
Image 10/11, Energy =   -92.8275480250 (+0.408 kcal/mol)
C        0.0194260531    0.0213642916    0.0000000000
N       -0.7589320385   -0.8347584655    0.0000000000
H        0.7395059801    0.8133941739    0.0000000000
