3    
Image 0/11, Energy =   -92.8141878332 (+8.793 kcal/mol)
C       -0.7519862172   -0.8272338407    0.0000000000
N        0.0394753340    0.0434721354    0.0000000000
H        0.7125108832    0.7837617053    0.0000000000
3    
Image 1/11, Energy =   -92.8041620868 (+15.085 kcal/mol)
C       -0.5408801025   -0.9041765935    0.0000000000
N       -0.1475749350    0.1983987177    0.0000000000
H        0.6884550375    0.7057778758    0.0000000000
3    
Image 2/11, Energy =   -92.7752743416 (+33.212 kcal/mol)
C       -0.3656438999   -0.8673017051    0.0000000000
N       -0.3111989258    0.3208665860    0.0000000000
H        0.6768428257    0.5464351244    0.0000000000
3    
Image 3/11, Energy =   -92.7421506731 (+53.997 kcal/mol)
C       -0.2068312783   -0.7680746173    0.0000000000
N       -0.4645468613    0.3971152593    0.0000000000
H        0.6713781397    0.3709593633    0.0000000000
3    
Image 4/11, Energy =   -92.7236053797 (+65.635 kcal/mol)
C       -0.0975726311   -0.6409582660    0.0000000000
N       -0.6441716258    0.4130583527    0.0000000000
H        0.7417442569    0.2278999133    0.0000000000
3    
Image 5/11, Energy =   -92.7488732477 (+49.779 kcal/mol)
C       -0.0421442315   -0.4855431576   -0.0000000000
N       -0.8271835430    0.3743773569    0.0000000000
H        0.8693277745    0.1111658004    0.0000000000
3    
Image 6/11, Energy =   -92.7952433668 (+20.681 kcal/mol)
C       -0.0057997643   -0.3082155203   -0.0000000000
N       -0.9793012233    0.2951615544   -0.0000000000
H        0.9851009875    0.0130539700    0.0000000000
3    
Image 7/11, Energy =   -92.8242697374 (+2.467 kcal/mol)
C        0.0291389938   -0.1085265101    0.0000000000
N       -1.0934699920    0.0927954616   -0.0000000000
H        1.0643309980    0.0157310517   -0.0000000000
3    
Image 8/11, Energy =   -92.8281103705 (+0.057 kcal/mol)
C        0.0342427790   -0.0070377572   -0.0000000000
N       -1.0766135702   -0.2723936842   -0.0000000000
H        1.0423707895    0.2794314445   -0.0000000000
3    
Image 9/11, Energy =   -92.8282011413 (+0.000 kcal/mol)
C        0.0274188664    0.0149393163   -0.0000000000
N       -0.9452036048   -0.5851123377   -0.0000000000
H        0.9177847348    0.5701730231   -0.0000000000
3    
Image 10/11, Energy =   -92.8275480250 (+0.410 kcal/mol)
C        0.0194260531    0.0213642916    0.0000000000
N       -0.7589320385   -0.8347584655    0.0000000000
H        0.7395059801    0.8133941739    0.0000000000
