3    
Image 0/11, Energy =   -92.8141878331 (+8.789 kcal/mol)
C       -0.7519862172   -0.8272338407    0.0000000000
N        0.0394753340    0.0434721354    0.0000000000
H        0.7125108832    0.7837617053    0.0000000000
3    
Image 1/11, Energy =   -92.8043632996 (+14.954 kcal/mol)
C       -0.5465355939   -0.9009687053    0.0000000000
N       -0.1440320730    0.1974543445    0.0000000000
H        0.6905676677    0.7035143630   -0.0000000000
3    
Image 2/11, Energy =   -92.7758666003 (+32.836 kcal/mol)
C       -0.3616133420   -0.8714833396    0.0000000000
N       -0.3115487734    0.3162639236    0.0000000000
H        0.6731621163    0.5552194194   -0.0000000000
3    
Image 3/11, Energy =   -92.7416557129 (+54.303 kcal/mol)
C       -0.1950947464   -0.7704417038    0.0000000000
N       -0.4751088974    0.3892209605    0.0000000000
H        0.6702036447    0.3812207470   -0.0000000000
3    
Image 4/11, Energy =   -92.7236048081 (+65.630 kcal/mol)
C       -0.0863731726   -0.6428978294    0.0000000000
N       -0.6525250257    0.4004488697    0.0000000000
H        0.7388981992    0.2424489635   -0.0000000000
3    
Image 5/11, Energy =   -92.7516488055 (+48.032 kcal/mol)
C       -0.0246929733   -0.4760616521    0.0000000000
N       -0.8490983952    0.3418605805    0.0000000000
H        0.8737913693    0.1342010753   -0.0000000000
3    
Image 6/11, Energy =   -92.7999854170 (+17.701 kcal/mol)
C        0.0193985176   -0.2844794183    0.0000000000
N       -1.0128348960    0.2049230924    0.0000000000
H        0.9934363791    0.0795563295   -0.0000000000
3    
Image 7/11, Energy =   -92.8247414266 (+2.166 kcal/mol)
C        0.0451780081   -0.0943667722    0.0000000000
N       -1.0937268498   -0.0878650000    0.0000000000
H        1.0485488423    0.1822317751   -0.0000000000
3    
Image 8/11, Energy =   -92.8279907437 (+0.127 kcal/mol)
C        0.0380629504   -0.0088981226    0.0000000000
N       -1.0329377138   -0.4036917396    0.0000000000
H        0.9948747628    0.4125898644   -0.0000000000
3    
Image 9/11, Energy =   -92.8281933644 (+0.000 kcal/mol)
C        0.0281638700    0.0144527560    0.0000000000
N       -0.9047087686   -0.6457878200    0.0000000000
H        0.8765448960    0.6313350651   -0.0000000000
3    
Image 10/11, Energy =   -92.8275480250 (+0.405 kcal/mol)
C        0.0194260531    0.0213642916    0.0000000000
N       -0.7589320385   -0.8347584655    0.0000000000
H        0.7395059801    0.8133941739    0.0000000000
