3    
Image 0/11, Energy =   -92.8141878332 (+8.793 kcal/mol)
C       -0.7519862172   -0.8272338407    0.0000000000
N        0.0394753340    0.0434721354    0.0000000000
H        0.7125108832    0.7837617053    0.0000000000
3    
Image 1/11, Energy =   -92.8041620868 (+15.084 kcal/mol)
C       -0.5408801025   -0.9041765935    0.0000000000
N       -0.1475749350    0.1983987177    0.0000000000
H        0.6884550375    0.7057778758    0.0000000000
3    
Image 2/11, Energy =   -92.7752743416 (+33.211 kcal/mol)
C       -0.3656438999   -0.8673017051    0.0000000000
N       -0.3111989258    0.3208665860    0.0000000000
H        0.6768428257    0.5464351244    0.0000000000
3    
Image 3/11, Energy =   -92.7421506731 (+53.997 kcal/mol)
C       -0.2068312783   -0.7680746173    0.0000000000
N       -0.4645468613    0.3971152593    0.0000000000
H        0.6713781397    0.3709593633    0.0000000000
3    
Image 4/11, Energy =   -92.7236053797 (+65.634 kcal/mol)
C       -0.0975726311   -0.6409582660    0.0000000000
N       -0.6441716258    0.4130583527    0.0000000000
H        0.7417442569    0.2278999133    0.0000000000
3    
Image 5/11, Energy =   -92.7483873812 (+50.083 kcal/mol)
C       -0.0429253661   -0.4873581431   -0.0000000000
N       -0.8251006102    0.3756166303    0.0000000000
H        0.8680259763    0.1117415105    0.0000000000
3    
Image 6/11, Energy =   -92.7935984640 (+21.713 kcal/mol)
C       -0.0078444779   -0.3154807477   -0.0000000000
N       -0.9733180829    0.3007023988   -0.0000000000
H        0.9811625608    0.0147783446   -0.0000000000
3    
Image 7/11, Energy =   -92.8236291373 (+2.868 kcal/mol)
C        0.0274587162   -0.1171654015   -0.0000000000
N       -1.0896327568    0.1118286294   -0.0000000000
H        1.0621740400    0.0053367751    0.0000000000
3    
Image 8/11, Energy =   -92.8280801172 (+0.075 kcal/mol)
C        0.0345803610   -0.0099118186   -0.0000000000
N       -1.0798878947   -0.2579092236   -0.0000000000
H        1.0453075311    0.2678210439   -0.0000000000
3    
Image 9/11, Energy =   -92.8281999197 (+0.000 kcal/mol)
C        0.0277108674    0.0144717704   -0.0000000000
N       -0.9490282149   -0.5787752496   -0.0000000000
H        0.9213173446    0.5643034815   -0.0000000000
3    
Image 10/11, Energy =   -92.8275480250 (+0.409 kcal/mol)
C        0.0194260531    0.0213642916    0.0000000000
N       -0.7589320385   -0.8347584655    0.0000000000
H        0.7395059801    0.8133941739    0.0000000000
