3    
Image 0/11, Energy =   -92.8141878331 (+8.799 kcal/mol)
C       -0.7519862172   -0.8272338407    0.0000000000
N        0.0394753340    0.0434721354    0.0000000000
H        0.7125108832    0.7837617053    0.0000000000
3    
Image 1/11, Energy =   -92.8047575341 (+14.717 kcal/mol)
C       -0.5622035324   -0.8929197587   -0.0000000000
N       -0.1381752682    0.1963698029    0.0000000000
H        0.7003788011    0.6965499588   -0.0000000000
3    
Image 2/11, Energy =   -92.7764770044 (+32.463 kcal/mol)
C       -0.3731025248   -0.8682433411   -0.0000000000
N       -0.3055521615    0.3161937408    0.0000000000
H        0.6786546874    0.5520496038   -0.0000000000
3    
Image 3/11, Energy =   -92.7430859709 (+53.416 kcal/mol)
C       -0.2074560414   -0.7744776211    0.0000000000
N       -0.4639024876    0.3914321088    0.0000000000
H        0.6713585300    0.3830455157   -0.0000000000
3    
Image 4/11, Energy =   -92.7235984466 (+65.645 kcal/mol)
C       -0.0829614601   -0.6403400207    0.0000000000
N       -0.6547927588    0.4015472214    0.0000000000
H        0.7377542199    0.2387928030   -0.0000000000
3    
Image 5/11, Energy =   -92.7511336780 (+48.366 kcal/mol)
C       -0.0191733035   -0.4774822073    0.0000000000
N       -0.8507481046    0.3323770214    0.0000000000
H        0.8699214095    0.1451051895   -0.0000000000
3    
Image 6/11, Energy =   -92.8020587628 (+16.410 kcal/mol)
C        0.0253530741   -0.2733522573    0.0000000000
N       -1.0225410177    0.1793206705    0.0000000000
H        0.9971879447    0.0940315900   -0.0000000000
3    
Image 7/11, Energy =   -92.8260813607 (+1.336 kcal/mol)
C        0.0447283735   -0.0713242268    0.0000000000
N       -1.0918023138   -0.1487158095    0.0000000000
H        1.0470739420    0.2200400398   -0.0000000000
3    
Image 8/11, Energy =   -92.8281282651 (+0.051 kcal/mol)
C        0.0341158735    0.0010276172    0.0000000000
N       -1.0098464588   -0.4620982738    0.0000000000
H        0.9757305863    0.4610706586   -0.0000000000
3    
Image 9/11, Energy =   -92.8282099055 (+0.000 kcal/mol)
C        0.0258512794    0.0170817538    0.0000000000
N       -0.8867780601   -0.6717746931   -0.0000000000
H        0.8609267790    0.6546929405   -0.0000000000
3    
Image 10/11, Energy =   -92.8275480250 (+0.415 kcal/mol)
C        0.0194260531    0.0213642916    0.0000000000
N       -0.7589320385   -0.8347584655    0.0000000000
H        0.7395059801    0.8133941739    0.0000000000
