3    
Image 0/11, Energy =   -92.8141878331 (+8.795 kcal/mol)
C       -0.7519862172   -0.8272338407    0.0000000000
N        0.0394753340    0.0434721354    0.0000000000
H        0.7125108832    0.7837617053    0.0000000000
3    
Image 1/11, Energy =   -92.8034642814 (+15.524 kcal/mol)
C       -0.5946197644   -0.8655864899   -0.0000000000
N       -0.1387290720    0.2123320590    0.0000000000
H        0.7333488365    0.6532544322    0.0000000000
3    
Image 2/11, Energy =   -92.7767232375 (+32.304 kcal/mol)
C       -0.4043008434   -0.8560796183   -0.0000000000
N       -0.2938844274    0.3265607355    0.0000000000
H        0.6981852714    0.5295188863    0.0000000000
3    
Image 3/11, Energy =   -92.7434537350 (+53.181 kcal/mol)
C       -0.2136647426   -0.7754199321   -0.0000000000
N       -0.4606102837    0.3928377760    0.0000000000
H        0.6742750273    0.3825821602   -0.0000000000
3    
Image 4/11, Energy =   -92.7236536817 (+65.606 kcal/mol)
C       -0.0975026055   -0.6526620098    0.0000000000
N       -0.6387867650    0.4003743817    0.0000000000
H        0.7362893716    0.2522876318   -0.0000000000
3    
Image 5/11, Energy =   -92.7493025437 (+49.511 kcal/mol)
C       -0.0301815537   -0.4831033716    0.0000000000
N       -0.8378575903    0.3481678883    0.0000000000
H        0.8680391449    0.1349354872   -0.0000000000
3    
Image 6/11, Energy =   -92.8050996310 (+14.498 kcal/mol)
C        0.0300708081   -0.2556924085    0.0000000000
N       -1.0328676068    0.1573527961    0.0000000000
H        1.0027968008    0.0983396171   -0.0000000000
3    
Image 7/11, Energy =   -92.8262922193 (+1.199 kcal/mol)
C        0.0480851938   -0.0650148756    0.0000000000
N       -1.0838279617   -0.2038443464    0.0000000000
H        1.0357427708    0.2688592249   -0.0000000000
3    
Image 8/11, Energy =   -92.8281097974 (+0.059 kcal/mol)
C        0.0340492803    0.0025333511    0.0000000000
N       -0.9918806503   -0.4974359567   -0.0000000000
H        0.9578313719    0.4949026079   -0.0000000000
3    
Image 9/11, Energy =   -92.8282030310 (+0.000 kcal/mol)
C        0.0261709006    0.0182222163   -0.0000000000
N       -0.8693935002   -0.6944681496    0.0000000000
H        0.8432225988    0.6762459343    0.0000000000
3    
Image 10/11, Energy =   -92.8275480250 (+0.411 kcal/mol)
C        0.0194260531    0.0213642916    0.0000000000
N       -0.7589320385   -0.8347584655    0.0000000000
H        0.7395059801    0.8133941739    0.0000000000
