3    
Image 0/11, Energy =   -92.8141878332 (+8.802 kcal/mol)
C       -0.7519862172   -0.8272338407    0.0000000000
N        0.0394753340    0.0434721354    0.0000000000
H        0.7125108832    0.7837617053    0.0000000000
3    
Image 1/11, Energy =   -92.8052048947 (+14.439 kcal/mol)
C       -0.5481628562   -0.9056101610    0.0000000000
N       -0.1393830336    0.1915579222    0.0000000000
H        0.6875458899    0.7140522388    0.0000000000
3    
Image 2/11, Energy =   -92.7764947654 (+32.455 kcal/mol)
C       -0.3819098337   -0.8658082611   -0.0000000000
N       -0.3020006511    0.3210342293    0.0000000000
H        0.6839104848    0.5447740371    0.0000000000
3    
Image 3/11, Energy =   -92.7438698119 (+52.928 kcal/mol)
C       -0.2264545293   -0.7712647674   -0.0000000000
N       -0.4485576502    0.4019511558    0.0000000000
H        0.6750121795    0.3693136169    0.0000000000
3    
Image 4/11, Energy =   -92.7236059901 (+65.643 kcal/mol)
C       -0.1061811537   -0.6387259266   -0.0000000000
N       -0.6401450582    0.4214046679    0.0000000000
H        0.7463262118    0.2173212587    0.0000000000
3    
Image 5/11, Energy =   -92.7544927638 (+46.262 kcal/mol)
C       -0.0438466288   -0.4644417879   -0.0000000000
N       -0.8423399715    0.3791244195    0.0000000000
H        0.8861866004    0.0853173737    0.0000000000
3    
Image 6/11, Energy =   -92.8043414506 (+14.981 kcal/mol)
C       -0.0033928025   -0.2638010729   -0.0000000000
N       -1.0043087282    0.2891465058    0.0000000000
H        1.0077015353   -0.0253454276    0.0000000000
3    
Image 7/11, Energy =   -92.8278598313 (+0.223 kcal/mol)
C        0.0328488840   -0.0304562371   -0.0000000000
N       -1.1093496656   -0.0450710937    0.0000000000
H        1.0765007867    0.0755273311   -0.0000000000
3    
Image 8/11, Energy =   -92.8282108081 (+0.003 kcal/mol)
C        0.0293999556    0.0095966351    0.0000000000
N       -1.0323687704   -0.4149073335    0.0000000000
H        1.0029688149    0.4053107036    0.0000000000
3    
Image 9/11, Energy =   -92.8282151875 (+0.000 kcal/mol)
C        0.0247876264    0.0180133871   -0.0000000000
N       -0.8971384818   -0.6590949858    0.0000000000
H        0.8723508553    0.6410816039   -0.0000000000
3    
Image 10/11, Energy =   -92.8275480250 (+0.419 kcal/mol)
C        0.0194260531    0.0213642916    0.0000000000
N       -0.7589320385   -0.8347584655    0.0000000000
H        0.7395059801    0.8133941739    0.0000000000
