3    
Image 0/11, Energy =   -92.8141878331 (+8.729 kcal/mol)
C       -0.7519862172   -0.8272338407    0.0000000000
N        0.0394753340    0.0434721354    0.0000000000
H        0.7125108832    0.7837617053    0.0000000000
3    
Image 1/11, Energy =   -92.8030394502 (+15.724 kcal/mol)
C       -0.6043645378   -0.8567400236   -0.0000000000
N       -0.1387124522    0.2173658627    0.0000000000
H        0.7430769900    0.6393741615    0.0000000000
3    
Image 2/11, Energy =   -92.7762523333 (+32.534 kcal/mol)
C       -0.4215924547   -0.8456155841    0.0000000000
N       -0.2893393533    0.3340769831    0.0000000000
H        0.7109318083    0.5115386037    0.0000000000
3    
Image 3/11, Energy =   -92.7432790361 (+53.225 kcal/mol)
C       -0.2214331785   -0.7730064655   -0.0000000000
N       -0.4592520762    0.3941603544    0.0000000000
H        0.6806852555    0.3788461156   -0.0000000000
3    
Image 4/11, Energy =   -92.7237010647 (+65.510 kcal/mol)
C       -0.1015601136   -0.6573791864    0.0000000000
N       -0.6361741169    0.4027659072    0.0000000000
H        0.7377342318    0.2546132827   -0.0000000000
3    
Image 5/11, Energy =   -92.7486922514 (+49.828 kcal/mol)
C       -0.0339368959   -0.4897647530    0.0000000000
N       -0.8364763566    0.3568607828    0.0000000000
H        0.8704132526    0.1329039740   -0.0000000000
3    
Image 6/11, Energy =   -92.8020155033 (+16.367 kcal/mol)
C        0.0301355997   -0.2731344081    0.0000000000
N       -1.0280980699    0.1430084407    0.0000000000
H        0.9979624737    0.1301259730   -0.0000000000
3    
Image 7/11, Energy =   -92.8248027346 (+2.068 kcal/mol)
C        0.0457231515   -0.0842472542    0.0000000000
N       -1.0761905264   -0.2238779932    0.0000000000
H        1.0304673781    0.3081252497   -0.0000000000
3    
Image 8/11, Energy =   -92.8277504223 (+0.218 kcal/mol)
C        0.0454766775   -0.0146523783    0.0000000000
N       -0.9964291123   -0.5011441757   -0.0000000000
H        0.9509524373    0.5157965566   -0.0000000000
3    
Image 9/11, Energy =   -92.8280977950 (+0.000 kcal/mol)
C        0.0303389701    0.0162264929   -0.0000000000
N       -0.8656020478   -0.7046513713    0.0000000000
H        0.8352630773    0.6884248791    0.0000000000
3    
Image 10/11, Energy =   -92.8275480250 (+0.345 kcal/mol)
C        0.0194260531    0.0213642916    0.0000000000
N       -0.7589320385   -0.8347584655    0.0000000000
H        0.7395059801    0.8133941739    0.0000000000
