3    
Image 0/11, Energy =   -92.8141878332 (+8.792 kcal/mol)
C       -0.7519862172   -0.8272338407    0.0000000000
N        0.0394753340    0.0434721354    0.0000000000
H        0.7125108832    0.7837617053    0.0000000000
3    
Image 1/11, Energy =   -92.8041620868 (+15.083 kcal/mol)
C       -0.5408801025   -0.9041765935    0.0000000000
N       -0.1475749350    0.1983987177    0.0000000000
H        0.6884550375    0.7057778758    0.0000000000
3    
Image 2/11, Energy =   -92.7752743416 (+33.210 kcal/mol)
C       -0.3656438999   -0.8673017051    0.0000000000
N       -0.3111989258    0.3208665860    0.0000000000
H        0.6768428257    0.5464351244    0.0000000000
3    
Image 3/11, Energy =   -92.7421506731 (+53.996 kcal/mol)
C       -0.2068312783   -0.7680746173    0.0000000000
N       -0.4645468613    0.3971152593    0.0000000000
H        0.6713781397    0.3709593633    0.0000000000
3    
Image 4/11, Energy =   -92.7236053797 (+65.633 kcal/mol)
C       -0.0975726311   -0.6409582660    0.0000000000
N       -0.6441716258    0.4130583527    0.0000000000
H        0.7417442569    0.2278999133    0.0000000000
3    
Image 5/11, Energy =   -92.7479397708 (+50.363 kcal/mol)
C       -0.0434458212   -0.4890719181    0.0000000000
N       -0.8233332837    0.3764406033    0.0000000000
H        0.8667791049    0.1126313125    0.0000000000
3    
Image 6/11, Energy =   -92.7931567873 (+21.989 kcal/mol)
C       -0.0081024724   -0.3176701113    0.0000000000
N       -0.9719199682    0.3028681797   -0.0000000000
H        0.9800224405    0.0148019274   -0.0000000000
3    
Image 7/11, Energy =   -92.8233923012 (+3.016 kcal/mol)
C        0.0268770887   -0.1202573993   -0.0000000000
N       -1.0883838029    0.1175056306   -0.0000000000
H        1.0615067136    0.0027517695    0.0000000000
3    
Image 8/11, Energy =   -92.8280766491 (+0.076 kcal/mol)
C        0.0348427620   -0.0102968668   -0.0000000000
N       -1.0809895801   -0.2534354595   -0.0000000000
H        1.0461468156    0.2637323280   -0.0000000000
3    
Image 9/11, Energy =   -92.8281981316 (+0.000 kcal/mol)
C        0.0278937850    0.0141772830   -0.0000000000
N       -0.9503840335   -0.5763420218   -0.0000000000
H        0.9224902455    0.5621647409   -0.0000000000
3    
Image 10/11, Energy =   -92.8275480250 (+0.408 kcal/mol)
C        0.0194260531    0.0213642916    0.0000000000
N       -0.7589320385   -0.8347584655    0.0000000000
H        0.7395059801    0.8133941739    0.0000000000
