3    
Image 0/11, Energy =   -92.8141878331 (+8.384 kcal/mol)
C       -0.7519862172   -0.8272338407    0.0000000000
N        0.0394753340    0.0434721354    0.0000000000
H        0.7125108832    0.7837617053    0.0000000000
3    
Image 1/11, Energy =   -92.8033776372 (+15.167 kcal/mol)
C       -0.6186223209   -0.8470091235    0.0000000000
N       -0.1312442265    0.2163208476   -0.0000000000
H        0.7498665474    0.6306882758    0.0000000000
3    
Image 2/11, Energy =   -92.7734964780 (+33.918 kcal/mol)
C       -0.4528252265   -0.8164674383   -0.0000000000
N       -0.2799087169    0.3596265355   -0.0000000000
H        0.7327339434    0.4568409031    0.0000000000
3    
Image 3/11, Energy =   -92.7428634848 (+53.140 kcal/mol)
C       -0.2757097244   -0.7540410828   -0.0000000000
N       -0.4307506850    0.4302954270   -0.0000000000
H        0.7064604095    0.3237456578    0.0000000000
3    
Image 4/11, Energy =   -92.7235711195 (+65.246 kcal/mol)
C       -0.1131316361   -0.6477996979   -0.0000000000
N       -0.6338812697    0.4169836533    0.0000000000
H        0.7470129065    0.2308160491   -0.0000000000
3    
Image 5/11, Energy =   -92.7384878139 (+55.886 kcal/mol)
C       -0.0086799849   -0.5042580597    0.0000000000
N       -0.8232573349    0.2827907000   -0.0000000000
H        0.8319373229    0.2214673642   -0.0000000000
3    
Image 6/11, Energy =   -92.7720195708 (+34.845 kcal/mol)
C        0.0557763422   -0.3856228268   -0.0000000000
N       -0.9553107854    0.1130802164   -0.0000000000
H        0.8995344459    0.2725426131    0.0000000000
3    
Image 7/11, Energy =   -92.7862692373 (+25.903 kcal/mol)
C        0.0687734718   -0.2089659500   -0.0000000000
N       -0.9907908950   -0.2811992586   -0.0000000000
H        0.9220174278    0.4901652122   -0.0000000000
3    
Image 8/11, Energy =   -92.8147099490 (+8.056 kcal/mol)
C        0.0778005868   -0.1149229966   -0.0000000000
N       -0.9546272493   -0.4888111306    0.0000000000
H        0.8768266670    0.6037341286   -0.0000000000
3    
Image 9/11, Energy =   -92.8233659747 (+2.624 kcal/mol)
C        0.0740741085   -0.0091426878   -0.0000000000
N       -0.8762117852   -0.7114637047    0.0000000000
H        0.8021376768    0.7206063926    0.0000000000
3    
Image 10/11, Energy =   -92.8275480250 (+0.000 kcal/mol)
C        0.0194260531    0.0213642916    0.0000000000
N       -0.7589320385   -0.8347584655    0.0000000000
H        0.7395059801    0.8133941739    0.0000000000
