3    
Image 0/11, Energy =   -92.8141878332 (+8.802 kcal/mol)
C       -0.7519862172   -0.8272338407    0.0000000000
N        0.0394753340    0.0434721354    0.0000000000
H        0.7125108832    0.7837617053    0.0000000000
3    
Image 1/11, Energy =   -92.8052048947 (+14.439 kcal/mol)
C       -0.5481628562   -0.9056101610    0.0000000000
N       -0.1393830336    0.1915579222    0.0000000000
H        0.6875458899    0.7140522388    0.0000000000
3    
Image 2/11, Energy =   -92.7764947654 (+32.455 kcal/mol)
C       -0.3819098337   -0.8658082611   -0.0000000000
N       -0.3020006511    0.3210342293    0.0000000000
H        0.6839104848    0.5447740371    0.0000000000
3    
Image 3/11, Energy =   -92.7438698119 (+52.928 kcal/mol)
C       -0.2264545293   -0.7712647674   -0.0000000000
N       -0.4485576502    0.4019511558    0.0000000000
H        0.6750121795    0.3693136169    0.0000000000
3    
Image 4/11, Energy =   -92.7236059901 (+65.643 kcal/mol)
C       -0.1061811537   -0.6387259266   -0.0000000000
N       -0.6401450582    0.4214046679    0.0000000000
H        0.7463262118    0.2173212587    0.0000000000
3    
Image 5/11, Energy =   -92.7544927638 (+46.262 kcal/mol)
C       -0.0438466288   -0.4644417879   -0.0000000000
N       -0.8423399715    0.3791244195    0.0000000000
H        0.8861866004    0.0853173737    0.0000000000
3    
Image 6/11, Energy =   -92.8043730768 (+14.961 kcal/mol)
C       -0.0033600901   -0.2636170414    0.0000000000
N       -1.0044392281    0.2888635887    0.0000000000
H        1.0077993235   -0.0252465420   -0.0000000000
3    
Image 7/11, Energy =   -92.8278652720 (+0.220 kcal/mol)
C        0.0330755095   -0.0302202610   -0.0000000000
N       -1.1094409008   -0.0468724728   -0.0000000000
H        1.0763653965    0.0770927391   -0.0000000000
3    
Image 8/11, Energy =   -92.8282108691 (+0.003 kcal/mol)
C        0.0293740734    0.0096675087   -0.0000000000
N       -1.0315676893   -0.4169107940    0.0000000000
H        1.0021936160    0.4072432906   -0.0000000000
3    
Image 9/11, Energy =   -92.8282152103 (+0.000 kcal/mol)
C        0.0247759342    0.0180400037    0.0000000000
N       -0.8965391213   -0.6599300155    0.0000000000
H        0.8717631871    0.6418900170   -0.0000000000
3    
Image 10/11, Energy =   -92.8275480250 (+0.419 kcal/mol)
C        0.0194260531    0.0213642916    0.0000000000
N       -0.7589320385   -0.8347584655    0.0000000000
H        0.7395059801    0.8133941739    0.0000000000
