3    
Image 0/11, Energy =   -92.8141878331 (+8.761 kcal/mol)
C       -0.7519862172   -0.8272338407    0.0000000000
N        0.0394753340    0.0434721354    0.0000000000
H        0.7125108832    0.7837617053    0.0000000000
3    
Image 1/11, Energy =   -92.8034358321 (+15.508 kcal/mol)
C       -0.5462133140   -0.8962995216    0.0000000000
N       -0.1500647858    0.2042593723    0.0000000000
H        0.6962781003    0.6920401516   -0.0000000000
3    
Image 2/11, Energy =   -92.7741021987 (+33.915 kcal/mol)
C       -0.3555261555   -0.8659820094    0.0000000000
N       -0.3182529514    0.3219776671    0.0000000000
H        0.6737791076    0.5440043455   -0.0000000000
3    
Image 3/11, Energy =   -92.7412344467 (+54.540 kcal/mol)
C       -0.1936451054   -0.7677439778    0.0000000000
N       -0.4761892051    0.3907702438   -0.0000000000
H        0.6698343114    0.3769737377   -0.0000000000
3    
Image 4/11, Energy =   -92.7236066442 (+65.602 kcal/mol)
C       -0.0862862385   -0.6432026487    0.0000000000
N       -0.6511402412    0.4011719837    0.0000000000
H        0.7374264805    0.2420306688   -0.0000000000
3    
Image 5/11, Energy =   -92.7465626771 (+51.196 kcal/mol)
C       -0.0320018653   -0.4950551784    0.0000000000
N       -0.8276935962    0.3555453158    0.0000000000
H        0.8596954623    0.1395098664   -0.0000000000
3    
Image 6/11, Energy =   -92.7917353301 (+22.850 kcal/mol)
C        0.0060954176   -0.3233802019    0.0000000000
N       -0.9803845711    0.2587746344    0.0000000000
H        0.9742891540    0.0646055712   -0.0000000000
3    
Image 7/11, Energy =   -92.8217152987 (+4.037 kcal/mol)
C        0.0366510241   -0.1360394273    0.0000000000
N       -1.0878191967    0.0509261866   -0.0000000000
H        1.0511681717    0.0851132438   -0.0000000000
3    
Image 8/11, Energy =   -92.8277180102 (+0.271 kcal/mol)
C        0.0407125536   -0.0256019422    0.0000000000
N       -1.0710490029   -0.2824235280   -0.0000000000
H        1.0303364466    0.3080254722   -0.0000000000
3    
Image 9/11, Energy =   -92.8281494171 (+0.000 kcal/mol)
C        0.0315996102    0.0093807757    0.0000000000
N       -0.9443870798   -0.5835724519    0.0000000000
H        0.9127874653    0.5741916771   -0.0000000000
3    
Image 10/11, Energy =   -92.8275480250 (+0.377 kcal/mol)
C        0.0194260531    0.0213642916    0.0000000000
N       -0.7589320385   -0.8347584655    0.0000000000
H        0.7395059801    0.8133941739    0.0000000000
