3    
Image 0/11, Energy =   -92.8141878331 (+8.785 kcal/mol)
C       -0.7519862172   -0.8272338407    0.0000000000
N        0.0394753340    0.0434721354    0.0000000000
H        0.7125108832    0.7837617053    0.0000000000
3    
Image 1/11, Energy =   -92.8040536754 (+15.144 kcal/mol)
C       -0.5437508133   -0.9007762205    0.0000000000
N       -0.1467721119    0.1990260306   -0.0000000000
H        0.6905229259    0.7017501920   -0.0000000000
3    
Image 2/11, Energy =   -92.7752880412 (+33.195 kcal/mol)
C       -0.3569302248   -0.8705075291    0.0000000000
N       -0.3146218157    0.3168925207    0.0000000000
H        0.6715520413    0.5536150119   -0.0000000000
3    
Image 3/11, Energy =   -92.7413991562 (+54.460 kcal/mol)
C       -0.1932796085   -0.7686362330    0.0000000000
N       -0.4758381839    0.3896868731   -0.0000000000
H        0.6691177933    0.3789493636   -0.0000000000
3    
Image 4/11, Energy =   -92.7236065486 (+65.625 kcal/mol)
C       -0.0857215746   -0.6435433404    0.0000000000
N       -0.6506618336    0.4012349782    0.0000000000
H        0.7363834091    0.2423083660   -0.0000000000
3    
Image 5/11, Energy =   -92.7507676686 (+48.581 kcal/mol)
C       -0.0254235488   -0.4789398604    0.0000000000
N       -0.8453927312    0.3439079523    0.0000000000
H        0.8708162809    0.1350319119   -0.0000000000
3    
Image 6/11, Energy =   -92.7988386595 (+18.416 kcal/mol)
C        0.0157778245   -0.2902865195    0.0000000000
N       -1.0069232820    0.2197606914    0.0000000000
H        0.9911454579    0.0705258316   -0.0000000000
3    
Image 7/11, Energy =   -92.8243598507 (+2.402 kcal/mol)
C        0.0433468950   -0.1017917264    0.0000000000
N       -1.0954558931   -0.0586449761    0.0000000000
H        1.0521089984    0.1604367054   -0.0000000000
3    
Image 8/11, Energy =   -92.8279538860 (+0.146 kcal/mol)
C        0.0387769295   -0.0128925317    0.0000000000
N       -1.0429614712   -0.3780336823    0.0000000000
H        1.0041845405    0.3909262161   -0.0000000000
3    
Image 9/11, Energy =   -92.8281869558 (+0.000 kcal/mol)
C        0.0290600106    0.0128373541    0.0000000000
N       -0.9137205894   -0.6326654309    0.0000000000
H        0.8846605757    0.6198280779   -0.0000000000
3    
Image 10/11, Energy =   -92.8275480250 (+0.401 kcal/mol)
C        0.0194260531    0.0213642916    0.0000000000
N       -0.7589320385   -0.8347584655    0.0000000000
H        0.7395059801    0.8133941739    0.0000000000
