3    
Image 0/11, Energy =   -92.8141878331 (+8.791 kcal/mol)
C       -0.7519862172   -0.8272338407    0.0000000000
N        0.0394753340    0.0434721354    0.0000000000
H        0.7125108832    0.7837617053    0.0000000000
3    
Image 1/11, Energy =   -92.8046400709 (+14.782 kcal/mol)
C       -0.5481734330   -0.9013619803   -0.0000000000
N       -0.1417332513    0.1955803338    0.0000000000
H        0.6899066852    0.7057816491   -0.0000000000
3    
Image 2/11, Energy =   -92.7761361504 (+32.669 kcal/mol)
C       -0.3649821151   -0.8705611193   -0.0000000000
N       -0.3096732352    0.3152417692    0.0000000000
H        0.6746553513    0.5553193534   -0.0000000000
3    
Image 3/11, Energy =   -92.7420014977 (+54.089 kcal/mol)
C       -0.1978303683   -0.7718989843    0.0000000000
N       -0.4730912798    0.3890033816    0.0000000000
H        0.6709216491    0.3828956064   -0.0000000000
3    
Image 4/11, Energy =   -92.7236034913 (+65.634 kcal/mol)
C       -0.0862158482   -0.6410194767    0.0000000000
N       -0.6556402619    0.3995923582    0.0000000000
H        0.7418561110    0.2414271223   -0.0000000000
3    
Image 5/11, Energy =   -92.7520735490 (+47.768 kcal/mol)
C       -0.0235491378   -0.4748394977    0.0000000000
N       -0.8514395434    0.3398444782    0.0000000000
H        0.8749886820    0.1349950231   -0.0000000000
3    
Image 6/11, Energy =   -92.8001533140 (+17.598 kcal/mol)
C        0.0223069837   -0.2830649680    0.0000000000
N       -1.0151423861    0.1932384337    0.0000000000
H        0.9928354036    0.0898265379   -0.0000000000
3    
Image 7/11, Energy =   -92.8250900180 (+1.950 kcal/mol)
C        0.0459113512   -0.0879796608    0.0000000000
N       -1.0925984460   -0.1078035119    0.0000000000
H        1.0466870956    0.1957831757   -0.0000000000
3    
Image 8/11, Energy =   -92.8280099603 (+0.118 kcal/mol)
C        0.0374123310   -0.0068599017    0.0000000000
N       -1.0256198827   -0.4216225472    0.0000000000
H        0.9882075516    0.4284824511   -0.0000000000
3    
Image 9/11, Energy =   -92.8281974827 (+0.000 kcal/mol)
C        0.0272760378    0.0155787203    0.0000000000
N       -0.8983890090   -0.6546446599    0.0000000000
H        0.8711129689    0.6390659407   -0.0000000000
3    
Image 10/11, Energy =   -92.8275480250 (+0.408 kcal/mol)
C        0.0194260531    0.0213642916    0.0000000000
N       -0.7589320385   -0.8347584655    0.0000000000
H        0.7395059801    0.8133941739    0.0000000000
