3    
Image 0/11, Energy =   -92.8141878331 (+8.384 kcal/mol)
C       -0.7519862172   -0.8272338407    0.0000000000
N        0.0394753340    0.0434721354    0.0000000000
H        0.7125108832    0.7837617053    0.0000000000
3    
Image 1/11, Energy =   -92.8032348845 (+15.257 kcal/mol)
C       -0.6163605667   -0.8489040335   -0.0000000000
N       -0.1337572599    0.2177490390   -0.0000000000
H        0.7501178265    0.6311549945    0.0000000000
3    
Image 2/11, Energy =   -92.7741848206 (+33.486 kcal/mol)
C       -0.4472108527   -0.8229689950   -0.0000000000
N       -0.2822880255    0.3538151375   -0.0000000000
H        0.7294988782    0.4691538583    0.0000000000
3    
Image 3/11, Energy =   -92.7429748359 (+53.070 kcal/mol)
C       -0.2619081104   -0.7581162893   -0.0000000000
N       -0.4383749915    0.4183679866    0.0000000000
H        0.7002831022    0.3397483056    0.0000000000
3    
Image 4/11, Energy =   -92.7235904371 (+65.234 kcal/mol)
C       -0.1104703746   -0.6511417190   -0.0000000000
N       -0.6343340191    0.4125888413    0.0000000000
H        0.7448043946    0.2385528820   -0.0000000000
3    
Image 5/11, Energy =   -92.7426416039 (+53.280 kcal/mol)
C       -0.0068799901   -0.5172972839    0.0000000000
N       -0.8362894758    0.3247862711   -0.0000000000
H        0.8431694678    0.1925110172   -0.0000000000
3    
Image 6/11, Energy =   -92.7817638058 (+28.730 kcal/mol)
C        0.0655409453   -0.3624645263   -0.0000000000
N       -0.9908306972    0.1258480088    0.0000000000
H        0.9252897553    0.2366165214    0.0000000000
3    
Image 7/11, Energy =   -92.8147051080 (+8.059 kcal/mol)
C        0.1010049748   -0.1724952326   -0.0000000000
N       -1.0417691075   -0.2533306306   -0.0000000000
H        0.9407641369    0.4258258664   -0.0000000000
3    
Image 8/11, Energy =   -92.8238157629 (+2.342 kcal/mol)
C        0.0885098277   -0.0788359513   -0.0000000000
N       -0.9854450516   -0.5025725682   -0.0000000000
H        0.8969352280    0.5814085212   -0.0000000000
3    
Image 9/11, Energy =   -92.8270318348 (+0.324 kcal/mol)
C        0.0420172202   -0.0152657201   -0.0000000000
N       -0.8537935595   -0.7033288575    0.0000000000
H        0.8117763392    0.7185945777    0.0000000000
3    
Image 10/11, Energy =   -92.8275480250 (+0.000 kcal/mol)
C        0.0194260531    0.0213642916    0.0000000000
N       -0.7589320385   -0.8347584655    0.0000000000
H        0.7395059801    0.8133941739    0.0000000000
