3    
Image 0/11, Energy =   -92.8141878331 (+8.750 kcal/mol)
C       -0.7519862172   -0.8272338407    0.0000000000
N        0.0394753340    0.0434721354    0.0000000000
H        0.7125108832    0.7837617053    0.0000000000
3    
Image 1/11, Energy =   -92.8033968805 (+15.522 kcal/mol)
C       -0.5451108988   -0.8968142860    0.0000000000
N       -0.1505440392    0.2044127403    0.0000000000
H        0.6956549385    0.6924015480   -0.0000000000
3    
Image 2/11, Energy =   -92.7741021987 (+33.904 kcal/mol)
C       -0.3555261555   -0.8659820094    0.0000000000
N       -0.3182529514    0.3219776671    0.0000000000
H        0.6737791076    0.5440043455   -0.0000000000
3    
Image 3/11, Energy =   -92.7412344467 (+54.529 kcal/mol)
C       -0.1936451054   -0.7677439778    0.0000000000
N       -0.4761892051    0.3907702438   -0.0000000000
H        0.6698343114    0.3769737377   -0.0000000000
3    
Image 4/11, Energy =   -92.7236066442 (+65.591 kcal/mol)
C       -0.0862862385   -0.6432026487    0.0000000000
N       -0.6511402412    0.4011719837    0.0000000000
H        0.7374264805    0.2420306688   -0.0000000000
3    
Image 5/11, Energy =   -92.7447465862 (+52.325 kcal/mol)
C       -0.0342647772   -0.5022186330    0.0000000000
N       -0.8201376415    0.3594730777    0.0000000000
H        0.8544024195    0.1427455591   -0.0000000000
3    
Image 6/11, Energy =   -92.7888614760 (+24.643 kcal/mol)
C        0.0026906553   -0.3359536643    0.0000000000
N       -0.9702644499    0.2709021778   -0.0000000000
H        0.9675737951    0.0650514902   -0.0000000000
3    
Image 7/11, Energy =   -92.8198246778 (+5.213 kcal/mol)
C        0.0342524493   -0.1553004635    0.0000000000
N       -1.0809192535    0.0773940368   -0.0000000000
H        1.0466668038    0.0779064299   -0.0000000000
3    
Image 8/11, Energy =   -92.8275900618 (+0.340 kcal/mol)
C        0.0412489777   -0.0304763696    0.0000000000
N       -1.0761405089   -0.2581261712   -0.0000000000
H        1.0348915286    0.2886025429   -0.0000000000
3    
Image 9/11, Energy =   -92.8281319885 (+0.000 kcal/mol)
C        0.0315478878    0.0091744345    0.0000000000
N       -0.9485483267   -0.5752777796    0.0000000000
H        0.9170004348    0.5661033460   -0.0000000000
3    
Image 10/11, Energy =   -92.8275480250 (+0.366 kcal/mol)
C        0.0194260531    0.0213642916    0.0000000000
N       -0.7589320385   -0.8347584655    0.0000000000
H        0.7395059801    0.8133941739    0.0000000000
