3    
Image 0/11, Energy =   -92.8141878331 (+8.664 kcal/mol)
C       -0.7519862172   -0.8272338407    0.0000000000
N        0.0394753340    0.0434721354    0.0000000000
H        0.7125108832    0.7837617053    0.0000000000
3    
Image 1/11, Energy =   -92.8030149501 (+15.675 kcal/mol)
C       -0.6014995711   -0.8587135993   -0.0000000000
N       -0.1397452677    0.2171050796    0.0000000000
H        0.7412448389    0.6416085205    0.0000000000
3    
Image 2/11, Energy =   -92.7767325776 (+32.167 kcal/mol)
C       -0.4153226026   -0.8509135289    0.0000000000
N       -0.2911031758    0.3293081316    0.0000000000
H        0.7064257787    0.5216054005    0.0000000000
3    
Image 3/11, Energy =   -92.7433643539 (+53.106 kcal/mol)
C       -0.2121722513   -0.7761977968   -0.0000000000
N       -0.4638771824    0.3880788816    0.0000000000
H        0.6760494347    0.3881189201   -0.0000000000
3    
Image 4/11, Energy =   -92.7237248311 (+65.430 kcal/mol)
C       -0.0992928976   -0.6588036665    0.0000000000
N       -0.6369624692    0.4006922589    0.0000000000
H        0.7362553683    0.2581114110   -0.0000000000
3    
Image 5/11, Energy =   -92.7501058690 (+48.876 kcal/mol)
C       -0.0379339343   -0.4849870241    0.0000000000
N       -0.8383625813    0.3657965451    0.0000000000
H        0.8762965153    0.1191904827   -0.0000000000
3    
Image 6/11, Energy =   -92.8059196681 (+13.852 kcal/mol)
C        0.0234160320   -0.2525614887    0.0000000000
N       -1.0377722838    0.1475684234    0.0000000000
H        1.0143562553    0.1049930712   -0.0000000000
3    
Image 7/11, Energy =   -92.8254989281 (+1.566 kcal/mol)
C        0.0330791030   -0.0626981933    0.0000000000
N       -1.0831478641   -0.2171191025    0.0000000000
H        1.0500687640    0.2798172980   -0.0000000000
3    
Image 8/11, Energy =   -92.8278594722 (+0.085 kcal/mol)
C        0.0379173118    0.0012881291    0.0000000000
N       -1.0013372274   -0.5012048791   -0.0000000000
H        0.9634199177    0.4999167526   -0.0000000000
3    
Image 9/11, Energy =   -92.8279941329 (+0.000 kcal/mol)
C        0.0267341443    0.0228693740   -0.0000000000
N       -0.8679551640   -0.7039749069    0.0000000000
H        0.8412210192    0.6811055336    0.0000000000
3    
Image 10/11, Energy =   -92.8275480250 (+0.280 kcal/mol)
C        0.0194260531    0.0213642916    0.0000000000
N       -0.7589320385   -0.8347584655    0.0000000000
H        0.7395059801    0.8133941739    0.0000000000
