3    
Image 0/11, Energy =   -92.8141878332 (+8.802 kcal/mol)
C       -0.7519862172   -0.8272338407    0.0000000000
N        0.0394753340    0.0434721354    0.0000000000
H        0.7125108832    0.7837617053    0.0000000000
3    
Image 1/11, Energy =   -92.8052048947 (+14.439 kcal/mol)
C       -0.5481628562   -0.9056101610    0.0000000000
N       -0.1393830336    0.1915579222    0.0000000000
H        0.6875458899    0.7140522388    0.0000000000
3    
Image 2/11, Energy =   -92.7764947654 (+32.455 kcal/mol)
C       -0.3819098337   -0.8658082611   -0.0000000000
N       -0.3020006511    0.3210342293    0.0000000000
H        0.6839104848    0.5447740371    0.0000000000
3    
Image 3/11, Energy =   -92.7438698119 (+52.927 kcal/mol)
C       -0.2264545293   -0.7712647674   -0.0000000000
N       -0.4485576502    0.4019511558    0.0000000000
H        0.6750121795    0.3693136169    0.0000000000
3    
Image 4/11, Energy =   -92.7236059901 (+65.643 kcal/mol)
C       -0.1061811537   -0.6387259266   -0.0000000000
N       -0.6401450582    0.4214046679    0.0000000000
H        0.7463262118    0.2173212587    0.0000000000
3    
Image 5/11, Energy =   -92.7544927638 (+46.261 kcal/mol)
C       -0.0438466288   -0.4644417879   -0.0000000000
N       -0.8423399715    0.3791244195    0.0000000000
H        0.8861866004    0.0853173737    0.0000000000
3    
Image 6/11, Energy =   -92.8042514155 (+15.037 kcal/mol)
C       -0.0036442307   -0.2642725795   -0.0000000000
N       -1.0038342581    0.2899435547   -0.0000000000
H        1.0074784930   -0.0256709701    0.0000000000
3    
Image 7/11, Energy =   -92.8278382581 (+0.236 kcal/mol)
C        0.0326492916   -0.0317584466   -0.0000000000
N       -1.1096630169   -0.0347456950    0.0000000000
H        1.0770137259    0.0665041375    0.0000000000
3    
Image 8/11, Energy =   -92.8282104872 (+0.003 kcal/mol)
C        0.0294837966    0.0092144325    0.0000000000
N       -1.0365344443   -0.4042521586   -0.0000000000
H        1.0070506523    0.3950377263   -0.0000000000
3    
Image 9/11, Energy =   -92.8282147980 (+0.000 kcal/mol)
C        0.0247965962    0.0178158741   -0.0000000000
N       -0.9004669727   -0.6543128709   -0.0000000000
H        0.8756703717    0.6364970066    0.0000000000
3    
Image 10/11, Energy =   -92.8275480250 (+0.418 kcal/mol)
C        0.0194260531    0.0213642916    0.0000000000
N       -0.7589320385   -0.8347584655    0.0000000000
H        0.7395059801    0.8133941739    0.0000000000
