3    
Image 0/11, Energy =   -92.8141878332 (+8.791 kcal/mol)
C       -0.7519862172   -0.8272338407    0.0000000000
N        0.0394753340    0.0434721354    0.0000000000
H        0.7125108832    0.7837617053    0.0000000000
3    
Image 1/11, Energy =   -92.8041620868 (+15.082 kcal/mol)
C       -0.5408801025   -0.9041765935    0.0000000000
N       -0.1475749350    0.1983987177    0.0000000000
H        0.6884550375    0.7057778758    0.0000000000
3    
Image 2/11, Energy =   -92.7752743416 (+33.210 kcal/mol)
C       -0.3656438999   -0.8673017051    0.0000000000
N       -0.3111989258    0.3208665860    0.0000000000
H        0.6768428257    0.5464351244    0.0000000000
3    
Image 3/11, Energy =   -92.7421506731 (+53.995 kcal/mol)
C       -0.2068312783   -0.7680746173    0.0000000000
N       -0.4645468613    0.3971152593    0.0000000000
H        0.6713781397    0.3709593633    0.0000000000
3    
Image 4/11, Energy =   -92.7236053797 (+65.632 kcal/mol)
C       -0.0975726311   -0.6409582660    0.0000000000
N       -0.6441716258    0.4130583527    0.0000000000
H        0.7417442569    0.2278999133    0.0000000000
3    
Image 5/11, Energy =   -92.7472399787 (+50.801 kcal/mol)
C       -0.0443963818   -0.4916485845   -0.0000000000
N       -0.8204395510    0.3776500413    0.0000000000
H        0.8648359328    0.1139985404    0.0000000000
3    
Image 6/11, Energy =   -92.7919691554 (+22.733 kcal/mol)
C       -0.0096078084   -0.3228873779   -0.0000000000
N       -0.9675597355    0.3074489795    0.0000000000
H        0.9771675439    0.0154383955    0.0000000000
3    
Image 7/11, Energy =   -92.8225182086 (+3.564 kcal/mol)
C        0.0249309612   -0.1308597880   -0.0000000000
N       -1.0836679492    0.1363388589   -0.0000000000
H        1.0587369872   -0.0054790739   -0.0000000000
3    
Image 8/11, Energy =   -92.8280533474 (+0.090 kcal/mol)
C        0.0351571220   -0.0123851518   -0.0000000000
N       -1.0843832344   -0.2377333861   -0.0000000000
H        1.0492261097    0.2501185381    0.0000000000
3    
Image 9/11, Energy =   -92.8281971068 (+0.000 kcal/mol)
C        0.0281421632    0.0138937689   -0.0000000000
N       -0.9535785554   -0.5709917587   -0.0000000000
H        0.9254363893    0.5570979919   -0.0000000000
3    
Image 10/11, Energy =   -92.8275480250 (+0.407 kcal/mol)
C        0.0194260531    0.0213642916    0.0000000000
N       -0.7589320385   -0.8347584655    0.0000000000
H        0.7395059801    0.8133941739    0.0000000000
