3    
Image 0/11, Energy =   -92.8141878332 (+8.793 kcal/mol)
C       -0.7519862172   -0.8272338407    0.0000000000
N        0.0394753340    0.0434721354    0.0000000000
H        0.7125108832    0.7837617053    0.0000000000
3    
Image 1/11, Energy =   -92.8041620868 (+15.085 kcal/mol)
C       -0.5408801025   -0.9041765935    0.0000000000
N       -0.1475749350    0.1983987177    0.0000000000
H        0.6884550375    0.7057778758    0.0000000000
3    
Image 2/11, Energy =   -92.7752743416 (+33.212 kcal/mol)
C       -0.3656438999   -0.8673017051    0.0000000000
N       -0.3111989258    0.3208665860    0.0000000000
H        0.6768428257    0.5464351244    0.0000000000
3    
Image 3/11, Energy =   -92.7421506731 (+53.997 kcal/mol)
C       -0.2068312783   -0.7680746173    0.0000000000
N       -0.4645468613    0.3971152593    0.0000000000
H        0.6713781397    0.3709593633    0.0000000000
3    
Image 4/11, Energy =   -92.7236053797 (+65.635 kcal/mol)
C       -0.0975726311   -0.6409582660    0.0000000000
N       -0.6441716258    0.4130583527    0.0000000000
H        0.7417442569    0.2278999133    0.0000000000
3    
Image 5/11, Energy =   -92.7493847425 (+49.458 kcal/mol)
C       -0.0411958765   -0.4836401267   -0.0000000000
N       -0.8294661342    0.3727997660   -0.0000000000
H        0.8706620107    0.1108403644   -0.0000000000
3    
Image 6/11, Energy =   -92.7963496976 (+19.987 kcal/mol)
C       -0.0041058494   -0.3031639531    0.0000000000
N       -0.9836371333    0.2900041054   -0.0000000000
H        0.9877429827    0.0131598497    0.0000000000
3    
Image 7/11, Energy =   -92.8250107779 (+2.002 kcal/mol)
C        0.0299403411   -0.0976336631    0.0000000000
N       -1.0966784644    0.0795813856    0.0000000000
H        1.0667381233    0.0180522820   -0.0000000000
3    
Image 8/11, Energy =   -92.8281191490 (+0.051 kcal/mol)
C        0.0340475652   -0.0058740588   -0.0000000000
N       -1.0740728893   -0.2823292091   -0.0000000000
H        1.0400253238    0.2882032729   -0.0000000000
3    
Image 9/11, Energy =   -92.8282011528 (+0.000 kcal/mol)
C        0.0277328358    0.0145025985    0.0000000000
N       -0.9409238968   -0.5921494468   -0.0000000000
H        0.9131910560    0.5776468486    0.0000000000
3    
Image 10/11, Energy =   -92.8275480250 (+0.410 kcal/mol)
C        0.0194260531    0.0213642916    0.0000000000
N       -0.7589320385   -0.8347584655    0.0000000000
H        0.7395059801    0.8133941739    0.0000000000
