3    
Image 0/11, Energy =   -92.8141878331 (+8.798 kcal/mol)
C       -0.7519862172   -0.8272338407    0.0000000000
N        0.0394753340    0.0434721354    0.0000000000
H        0.7125108832    0.7837617053    0.0000000000
3    
Image 1/11, Energy =   -92.8044909864 (+14.883 kcal/mol)
C       -0.5723948606   -0.8853486791   -0.0000000000
N       -0.1377665051    0.2003197232    0.0000000000
H        0.7101613661    0.6850289586    0.0000000000
3    
Image 2/11, Energy =   -92.7767072563 (+32.318 kcal/mol)
C       -0.3785758808   -0.8679150292   -0.0000000000
N       -0.3029283200    0.3183876066    0.0000000000
H        0.6815042018    0.5495274263   -0.0000000000
3    
Image 3/11, Energy =   -92.7434103096 (+53.212 kcal/mol)
C       -0.2099040915   -0.7755486752   -0.0000000000
N       -0.4614278323    0.3921536506    0.0000000000
H        0.6713319250    0.3833950280   -0.0000000000
3    
Image 4/11, Energy =   -92.7235008504 (+65.705 kcal/mol)
C       -0.0853378664   -0.6392185118    0.0000000000
N       -0.6479937925    0.3989936102    0.0000000000
H        0.7333316600    0.2402249053   -0.0000000000
3    
Image 5/11, Energy =   -92.7504357652 (+48.803 kcal/mol)
C       -0.0193761781   -0.4809463613    0.0000000000
N       -0.8489075020    0.3337254966    0.0000000000
H        0.8682836819    0.1472208684   -0.0000000000
3    
Image 6/11, Energy =   -92.8040636539 (+15.151 kcal/mol)
C        0.0243969594   -0.2621521545    0.0000000000
N       -1.0272428507    0.1759115854    0.0000000000
H        1.0028458920    0.0862405722   -0.0000000000
3    
Image 7/11, Energy =   -92.8263872719 (+1.143 kcal/mol)
C        0.0444563688   -0.0623314668    0.0000000000
N       -1.0883982476   -0.1660613700    0.0000000000
H        1.0439418810    0.2283928405   -0.0000000000
3    
Image 8/11, Energy =   -92.8281510566 (+0.036 kcal/mol)
C        0.0317848939    0.0075681102    0.0000000000
N       -1.0015958079   -0.4781859500    0.0000000000
H        0.9698109152    0.4706178418   -0.0000000000
3    
Image 9/11, Energy =   -92.8282086157 (+0.000 kcal/mol)
C        0.0250713270    0.0177976229   -0.0000000000
N       -0.8814609519   -0.6782512968   -0.0000000000
H        0.8563896234    0.6604536751   -0.0000000000
3    
Image 10/11, Energy =   -92.8275480250 (+0.415 kcal/mol)
C        0.0194260531    0.0213642916    0.0000000000
N       -0.7589320385   -0.8347584655    0.0000000000
H        0.7395059801    0.8133941739    0.0000000000
