3    
Image 0/11, Energy =   -92.8141878331 (+8.757 kcal/mol)
C       -0.7519862172   -0.8272338407    0.0000000000
N        0.0394753340    0.0434721354    0.0000000000
H        0.7125108832    0.7837617053    0.0000000000
3    
Image 1/11, Energy =   -92.8033968805 (+15.529 kcal/mol)
C       -0.5451108988   -0.8968142860    0.0000000000
N       -0.1505440392    0.2044127403    0.0000000000
H        0.6956549385    0.6924015480   -0.0000000000
3    
Image 2/11, Energy =   -92.7741021987 (+33.911 kcal/mol)
C       -0.3555261555   -0.8659820094    0.0000000000
N       -0.3182529514    0.3219776671    0.0000000000
H        0.6737791076    0.5440043455   -0.0000000000
3    
Image 3/11, Energy =   -92.7412344467 (+54.536 kcal/mol)
C       -0.1936451054   -0.7677439778    0.0000000000
N       -0.4761892051    0.3907702438   -0.0000000000
H        0.6698343114    0.3769737377   -0.0000000000
3    
Image 4/11, Energy =   -92.7236066442 (+65.598 kcal/mol)
C       -0.0862862385   -0.6432026487    0.0000000000
N       -0.6511402412    0.4011719837    0.0000000000
H        0.7374264805    0.2420306688   -0.0000000000
3    
Image 5/11, Energy =   -92.7455588239 (+51.823 kcal/mol)
C       -0.0331311472   -0.4990308482    0.0000000000
N       -0.8236381566    0.3575692661    0.0000000000
H        0.8567693047    0.1414615859   -0.0000000000
3    
Image 6/11, Energy =   -92.7888614760 (+24.650 kcal/mol)
C        0.0026906553   -0.3359536643    0.0000000000
N       -0.9702644499    0.2709021778   -0.0000000000
H        0.9675737951    0.0650514902   -0.0000000000
3    
Image 7/11, Energy =   -92.8204734594 (+4.813 kcal/mol)
C        0.0343969524   -0.1490577873    0.0000000000
N       -1.0830268405    0.0715100930   -0.0000000000
H        1.0486298875    0.0775476975   -0.0000000000
3    
Image 8/11, Energy =   -92.8276299950 (+0.322 kcal/mol)
C        0.0407208936   -0.0289531583    0.0000000000
N       -1.0750597733   -0.2629684833   -0.0000000000
H        1.0343388768    0.2919216436   -0.0000000000
3    
Image 9/11, Energy =   -92.8281435912 (+0.000 kcal/mol)
C        0.0315984690    0.0091979670    0.0000000000
N       -0.9468978761   -0.5789464605    0.0000000000
H        0.9152994028    0.5697484943   -0.0000000000
3    
Image 10/11, Energy =   -92.8275480250 (+0.374 kcal/mol)
C        0.0194260531    0.0213642916    0.0000000000
N       -0.7589320385   -0.8347584655    0.0000000000
H        0.7395059801    0.8133941739    0.0000000000
