3    
Image 0/11, Energy =   -92.8141878331 (+8.796 kcal/mol)
C       -0.7519862172   -0.8272338407    0.0000000000
N        0.0394753340    0.0434721354    0.0000000000
H        0.7125108832    0.7837617053    0.0000000000
3    
Image 1/11, Energy =   -92.8041396680 (+15.101 kcal/mol)
C       -0.5808525413   -0.8780670087   -0.0000000000
N       -0.1381531589    0.2044508784    0.0000000000
H        0.7190057004    0.6736161326    0.0000000000
3    
Image 2/11, Energy =   -92.7767976090 (+32.258 kcal/mol)
C       -0.3860158014   -0.8641049916   -0.0000000000
N       -0.3001218355    0.3192540398    0.0000000000
H        0.6861376378    0.5448509557   -0.0000000000
3    
Image 3/11, Energy =   -92.7434999664 (+53.153 kcal/mol)
C       -0.2113257531   -0.7745855827   -0.0000000000
N       -0.4601372542    0.3910898581    0.0000000000
H        0.6714630085    0.3834957281   -0.0000000000
3    
Image 4/11, Energy =   -92.7236114229 (+65.633 kcal/mol)
C       -0.0867203368   -0.6474575179    0.0000000000
N       -0.6462540126    0.4034867551    0.0000000000
H        0.7329743505    0.2439707665   -0.0000000000
3    
Image 5/11, Energy =   -92.7499517952 (+49.104 kcal/mol)
C       -0.0217489649   -0.4823887105    0.0000000000
N       -0.8455640869    0.3377857275    0.0000000000
H        0.8673130535    0.1446029868   -0.0000000000
3    
Image 6/11, Energy =   -92.8051801510 (+14.448 kcal/mol)
C        0.0275665881   -0.2552085075    0.0000000000
N       -1.0308497974    0.1713239767    0.0000000000
H        1.0032832102    0.0838845343   -0.0000000000
3    
Image 7/11, Energy =   -92.8264094514 (+1.126 kcal/mol)
C        0.0459686029   -0.0589107349    0.0000000000
N       -1.0852142289   -0.1797014537    0.0000000000
H        1.0392456286    0.2386121921   -0.0000000000
3    
Image 8/11, Energy =   -92.8281178641 (+0.054 kcal/mol)
C        0.0312040358    0.0098132599    0.0000000000
N       -0.9956398438   -0.4874545929   -0.0000000000
H        0.9644358095    0.4776413351   -0.0000000000
3    
Image 9/11, Energy =   -92.8282044489 (+0.000 kcal/mol)
C        0.0255589480    0.0187380594   -0.0000000000
N       -0.8772993970   -0.6839190620    0.0000000000
H        0.8517404478    0.6651810037    0.0000000000
3    
Image 10/11, Energy =   -92.8275480250 (+0.412 kcal/mol)
C        0.0194260531    0.0213642916    0.0000000000
N       -0.7589320385   -0.8347584655    0.0000000000
H        0.7395059801    0.8133941739    0.0000000000
