3    
Image 0/11, Energy =   -92.8141878331 (+8.760 kcal/mol)
C       -0.7519862172   -0.8272338407    0.0000000000
N        0.0394753340    0.0434721354    0.0000000000
H        0.7125108832    0.7837617053    0.0000000000
3    
Image 1/11, Energy =   -92.8033906317 (+15.535 kcal/mol)
C       -0.5458322201   -0.8963268679    0.0000000000
N       -0.1504186198    0.2045622261    0.0000000000
H        0.6962508403    0.6917646441   -0.0000000000
3    
Image 2/11, Energy =   -92.7741021987 (+33.914 kcal/mol)
C       -0.3555261555   -0.8659820094    0.0000000000
N       -0.3182529514    0.3219776671    0.0000000000
H        0.6737791076    0.5440043455   -0.0000000000
3    
Image 3/11, Energy =   -92.7412344467 (+54.539 kcal/mol)
C       -0.1936451054   -0.7677439778    0.0000000000
N       -0.4761892051    0.3907702438   -0.0000000000
H        0.6698343114    0.3769737377   -0.0000000000
3    
Image 4/11, Energy =   -92.7236066442 (+65.601 kcal/mol)
C       -0.0862862385   -0.6432026487    0.0000000000
N       -0.6511402412    0.4011719837    0.0000000000
H        0.7374264805    0.2420306688   -0.0000000000
3    
Image 5/11, Energy =   -92.7460364121 (+51.526 kcal/mol)
C       -0.0325704618   -0.4971531801    0.0000000000
N       -0.8255970695    0.3566028775    0.0000000000
H        0.8581675320    0.1405503064   -0.0000000000
3    
Image 6/11, Energy =   -92.7897484155 (+24.096 kcal/mol)
C        0.0036737224   -0.3321540267    0.0000000000
N       -0.9733576855    0.2674580606    0.0000000000
H        0.9696839637    0.0646959698   -0.0000000000
3    
Image 7/11, Energy =   -92.8210043120 (+4.483 kcal/mol)
C        0.0349158746   -0.1436657755    0.0000000000
N       -1.0848966904    0.0644894586   -0.0000000000
H        1.0499808150    0.0791763200   -0.0000000000
3    
Image 8/11, Energy =   -92.8276666883 (+0.302 kcal/mol)
C        0.0404507303   -0.0275395583    0.0000000000
N       -1.0736534619   -0.2695429633   -0.0000000000
H        1.0332027288    0.2970825236   -0.0000000000
3    
Image 9/11, Energy =   -92.8281478579 (+0.000 kcal/mol)
C        0.0316017788    0.0092714484    0.0000000000
N       -0.9462214524   -0.5804281994    0.0000000000
H        0.9146196693    0.5711567518   -0.0000000000
3    
Image 10/11, Energy =   -92.8275480250 (+0.376 kcal/mol)
C        0.0194260531    0.0213642916    0.0000000000
N       -0.7589320385   -0.8347584655    0.0000000000
H        0.7395059801    0.8133941739    0.0000000000
