3    
Image 0/11, Energy =   -92.8141878331 (+8.384 kcal/mol)
C       -0.7519862172   -0.8272338407    0.0000000000
N        0.0394753340    0.0434721354    0.0000000000
H        0.7125108832    0.7837617053    0.0000000000
3    
Image 1/11, Energy =   -92.8035819435 (+15.039 kcal/mol)
C       -0.6201310863   -0.8473069994    0.0000000000
N       -0.1302038364    0.2151070054   -0.0000000000
H        0.7503349227    0.6321999940    0.0000000000
3    
Image 2/11, Energy =   -92.7730766648 (+34.181 kcal/mol)
C       -0.4531892726   -0.8143038907   -0.0000000000
N       -0.2801720568    0.3620262369    0.0000000000
H        0.7333613294    0.4522776540    0.0000000000
3    
Image 3/11, Energy =   -92.7429986484 (+53.056 kcal/mol)
C       -0.2833341980   -0.7497168241   -0.0000000000
N       -0.4240339896    0.4341473870   -0.0000000000
H        0.7073681876    0.3155694385    0.0000000000
3    
Image 4/11, Energy =   -92.7235727049 (+65.245 kcal/mol)
C       -0.1123482386   -0.6446728639    0.0000000000
N       -0.6352510136    0.4188735271    0.0000000000
H        0.7475992526    0.2257993416    0.0000000000
3    
Image 5/11, Energy =   -92.7390199081 (+55.552 kcal/mol)
C        0.0022992946   -0.5230762919    0.0000000000
N       -0.8239787811    0.2897202188    0.0000000000
H        0.8216794902    0.2333560778    0.0000000000
3    
Image 6/11, Energy =   -92.7702918569 (+35.929 kcal/mol)
C        0.0680985689   -0.3996105387   -0.0000000000
N       -0.9534377510    0.1145267291   -0.0000000000
H        0.8853391840    0.2850838116    0.0000000000
3    
Image 7/11, Energy =   -92.8033844425 (+15.163 kcal/mol)
C        0.1074424447   -0.2305559165   -0.0000000000
N       -1.0104702501   -0.2612378527   -0.0000000000
H        0.9030278103    0.4917937733   -0.0000000000
3    
Image 8/11, Energy =   -92.8197596452 (+4.887 kcal/mol)
C        0.0951183818   -0.1110460881   -0.0000000000
N       -0.9577625013   -0.5009457746   -0.0000000000
H        0.8626441243    0.6119918637    0.0000000000
3    
Image 9/11, Energy =   -92.8263730186 (+0.737 kcal/mol)
C        0.0685900213   -0.0187438841   -0.0000000000
N       -0.8648230711   -0.7068948574    0.0000000000
H        0.7962330499    0.7256387416   -0.0000000000
3    
Image 10/11, Energy =   -92.8275480250 (+0.000 kcal/mol)
C        0.0194260531    0.0213642916    0.0000000000
N       -0.7589320385   -0.8347584655    0.0000000000
H        0.7395059801    0.8133941739    0.0000000000
