3    
Image 0/11, Energy =   -92.8148741520 (+8.372 kcal/mol)
C       -0.7423976108   -0.8166733316   -0.0000000000
N        0.0415634250    0.0457411997    0.0000000000
H        0.7008341858    0.7709321319    0.0000000000
3    
Image 1/11, Energy =   -92.8045048279 (+14.879 kcal/mol)
C       -0.5939944449   -0.8734246680    0.0000000000
N       -0.1343180962    0.2047194778    0.0000000000
H        0.7283125419    0.6687051904    0.0000000000
3    
Image 2/11, Energy =   -92.7740826109 (+33.969 kcal/mol)
C       -0.3945493552   -0.8498962383    0.0000000000
N       -0.3028975415    0.3377008320    0.0000000000
H        0.6974468969    0.5121954036    0.0000000000
3    
Image 3/11, Energy =   -92.7454482405 (+51.937 kcal/mol)
C       -0.2453970773   -0.7736136413    0.0000000000
N       -0.4340939875    0.4059597712    0.0000000000
H        0.6794910648    0.3676538657    0.0000000000
3    
Image 4/11, Energy =   -92.7236064005 (+65.643 kcal/mol)
C       -0.1114711160   -0.6377029794    0.0000000000
N       -0.6373134680    0.4265426664   -0.0000000000
H        0.7487845839    0.2111603077    0.0000000000
3    
Image 5/11, Energy =   -92.7455900300 (+51.848 kcal/mol)
C       -0.0557142471   -0.4974826929    0.0000000000
N       -0.8068226403    0.3957473078    0.0000000000
H        0.8625368874    0.1017353799    0.0000000000
3    
Image 6/11, Energy =   -92.7933709074 (+21.866 kcal/mol)
C       -0.0128931557   -0.3172211115    0.0000000000
N       -0.9686208455    0.3168236318   -0.0000000000
H        0.9815140012    0.0003974750    0.0000000000
3    
Image 7/11, Energy =   -92.8278623786 (+0.222 kcal/mol)
C        0.0367928605   -0.0260373155   -0.0000000000
N       -1.0915287537   -0.2112990675    0.0000000000
H        1.0547358932    0.2373363823   -0.0000000000
3    
Image 8/11, Energy =   -92.8282037659 (+0.008 kcal/mol)
C        0.0294169357    0.0100515525    0.0000000000
N       -0.9635510338   -0.5583466278    0.0000000000
H        0.9341340981    0.5482950753   -0.0000000000
3    
Image 9/11, Energy =   -92.8282133643 (+0.002 kcal/mol)
C        0.0226502297    0.0205525709   -0.0000000000
N       -0.7546795668   -0.8188468760    0.0000000000
H        0.7320293372    0.7982942998    0.0000000000
3    
Image 10/11, Energy =   -92.8282158336 (+0.000 kcal/mol)
C        0.0205086862    0.0225589462    0.0000000000
N       -0.7491295810   -0.8240317894   -0.0000000000
H        0.7286208949    0.8014728432    0.0000000000
