3    
Image 0/11, Energy =   -92.8148741520 (+8.372 kcal/mol)
C       -0.7423976108   -0.8166733316   -0.0000000000
N        0.0415634250    0.0457411997    0.0000000000
H        0.7008341858    0.7709321319    0.0000000000
3    
Image 1/11, Energy =   -92.8039492118 (+15.228 kcal/mol)
C       -0.6238052777   -0.8493094312    0.0000000000
N       -0.1300962382    0.2139471296   -0.0000000000
H        0.7539015159    0.6353623016    0.0000000000
3    
Image 2/11, Energy =   -92.7723469683 (+35.058 kcal/mol)
C       -0.4522452017   -0.8126077550    0.0000000000
N       -0.2817799956    0.3667101196   -0.0000000000
H        0.7340252018    0.4458976406    0.0000000000
3    
Image 3/11, Energy =   -92.7438319719 (+52.952 kcal/mol)
C       -0.2917051386   -0.7483413513   -0.0000000000
N       -0.4118926465    0.4392583523   -0.0000000000
H        0.7035977851    0.3090830032    0.0000000000
3    
Image 4/11, Energy =   -92.7236064005 (+65.643 kcal/mol)
C       -0.1114711160   -0.6377029794    0.0000000000
N       -0.6373134680    0.4265426664   -0.0000000000
H        0.7487845839    0.2111603077    0.0000000000
3    
Image 5/11, Energy =   -92.7377550725 (+56.765 kcal/mol)
C        0.0017072767   -0.5365904487    0.0000000000
N       -0.8204094598    0.3065105460   -0.0000000000
H        0.8187021830    0.2300799022    0.0000000000
3    
Image 6/11, Energy =   -92.7700014098 (+36.530 kcal/mol)
C        0.0652236994   -0.4059253213   -0.0000000000
N       -0.9539169854    0.1392142524   -0.0000000000
H        0.8886932860    0.2667110688    0.0000000000
3    
Image 7/11, Energy =   -92.8023176665 (+16.251 kcal/mol)
C        0.1341919411   -0.2405842797   -0.0000000000
N       -1.0285156249   -0.2190366453    0.0000000000
H        0.8943236838    0.4596209250   -0.0000000000
3    
Image 8/11, Energy =   -92.8227443106 (+3.433 kcal/mol)
C        0.0965572740   -0.0903300685    0.0000000000
N       -0.9580225522   -0.5306181426   -0.0000000000
H        0.8614652782    0.6209482111    0.0000000000
3    
Image 9/11, Energy =   -92.8282133643 (+0.002 kcal/mol)
C        0.0226502297    0.0205525709   -0.0000000000
N       -0.7546795668   -0.8188468760    0.0000000000
H        0.7320293372    0.7982942998    0.0000000000
3    
Image 10/11, Energy =   -92.8282158336 (+0.000 kcal/mol)
C        0.0205086862    0.0225589462    0.0000000000
N       -0.7491295810   -0.8240317894   -0.0000000000
H        0.7286208949    0.8014728432    0.0000000000
