3    
Image 0/11, Energy =   -92.8148741520 (+8.372 kcal/mol)
C       -0.7423976108   -0.8166733316   -0.0000000000
N        0.0415634250    0.0457411997    0.0000000000
H        0.7008341858    0.7709321319    0.0000000000
3    
Image 1/11, Energy =   -92.8042441640 (+15.042 kcal/mol)
C       -0.6054929959   -0.8640677330    0.0000000000
N       -0.1331947975    0.2085993674    0.0000000000
H        0.7386877944    0.6554683667    0.0000000000
3    
Image 2/11, Energy =   -92.7738019115 (+34.145 kcal/mol)
C       -0.4076710070   -0.8424195935    0.0000000000
N       -0.2983004528    0.3437028929    0.0000000000
H        0.7059714603    0.4987166998    0.0000000000
3    
Image 3/11, Energy =   -92.7453863703 (+51.976 kcal/mol)
C       -0.2515858659   -0.7713268068    0.0000000000
N       -0.4311198382    0.4095529613    0.0000000000
H        0.6827057040    0.3617738420    0.0000000000
3    
Image 4/11, Energy =   -92.7236064005 (+65.643 kcal/mol)
C       -0.1114711160   -0.6377029794    0.0000000000
N       -0.6373134680    0.4265426664   -0.0000000000
H        0.7487845839    0.2111603077    0.0000000000
3    
Image 5/11, Energy =   -92.7454188634 (+51.956 kcal/mol)
C       -0.0516082462   -0.4986639783    0.0000000000
N       -0.8096762173    0.3886387168   -0.0000000000
H        0.8612844635    0.1100252566    0.0000000000
3    
Image 6/11, Energy =   -92.7921384082 (+22.639 kcal/mol)
C       -0.0039179783   -0.3230300341   -0.0000000000
N       -0.9743574248    0.2887238618    0.0000000000
H        0.9782754030    0.0343061685    0.0000000000
3    
Image 7/11, Energy =   -92.8268648888 (+0.848 kcal/mol)
C        0.0446991961   -0.0557223596   -0.0000000000
N       -1.0871268586   -0.2141599733    0.0000000000
H        1.0424276624    0.2698823324   -0.0000000000
3    
Image 8/11, Energy =   -92.8281147121 (+0.063 kcal/mol)
C        0.0348859214    0.0000331941    0.0000000000
N       -0.9649571545   -0.5545356647    0.0000000000
H        0.9300712331    0.5545024706   -0.0000000000
3    
Image 9/11, Energy =   -92.8282133643 (+0.002 kcal/mol)
C        0.0226502297    0.0205525709   -0.0000000000
N       -0.7546795668   -0.8188468760    0.0000000000
H        0.7320293372    0.7982942998    0.0000000000
3    
Image 10/11, Energy =   -92.8282158336 (+0.000 kcal/mol)
C        0.0205086862    0.0225589462    0.0000000000
N       -0.7491295810   -0.8240317894   -0.0000000000
H        0.7286208949    0.8014728432    0.0000000000
