3    
Image 0/11, Energy =   -92.8148741520 (+8.372 kcal/mol)
C       -0.7423976108   -0.8166733316   -0.0000000000
N        0.0415634250    0.0457411997    0.0000000000
H        0.7008341858    0.7709321319    0.0000000000
3    
Image 1/11, Energy =   -92.8039718362 (+15.213 kcal/mol)
C       -0.6208036024   -0.8516999452    0.0000000000
N       -0.1308458360    0.2132989724    0.0000000000
H        0.7516494392    0.6384009739    0.0000000000
3    
Image 2/11, Energy =   -92.7728705681 (+34.730 kcal/mol)
C       -0.4366007604   -0.8235498378    0.0000000000
N       -0.2879520696    0.3585560403    0.0000000000
H        0.7245528322    0.4649938008    0.0000000000
3    
Image 3/11, Energy =   -92.7449168046 (+52.271 kcal/mol)
C       -0.2720581804   -0.7617807410   -0.0000000000
N       -0.4212111195    0.4228931246    0.0000000000
H        0.6932692999    0.3388876165    0.0000000000
3    
Image 4/11, Energy =   -92.7236064005 (+65.643 kcal/mol)
C       -0.1114711160   -0.6377029794    0.0000000000
N       -0.6373134680    0.4265426664   -0.0000000000
H        0.7487845839    0.2111603077    0.0000000000
3    
Image 5/11, Energy =   -92.7436862866 (+53.043 kcal/mol)
C       -0.0290955135   -0.5075619265    0.0000000000
N       -0.8209961706    0.3503581843   -0.0000000000
H        0.8500916841    0.1572037391    0.0000000000
3    
Image 6/11, Energy =   -92.7837144782 (+27.925 kcal/mol)
C        0.0286022390   -0.3572579816    0.0000000000
N       -0.9754682797    0.2026022124   -0.0000000000
H        0.9468660407    0.1546557680    0.0000000000
3    
Image 7/11, Energy =   -92.8187856306 (+5.918 kcal/mol)
C        0.0790529365   -0.1510447624   -0.0000000000
N       -1.0610560980   -0.2208339484    0.0000000000
H        0.9820031615    0.3718787107   -0.0000000000
3    
Image 8/11, Energy =   -92.8266609117 (+0.976 kcal/mol)
C        0.0624690328   -0.0431582522    0.0000000000
N       -0.9674148163   -0.5403004052    0.0000000000
H        0.9049457835    0.5834586573    0.0000000000
3    
Image 9/11, Energy =   -92.8282133643 (+0.002 kcal/mol)
C        0.0226502297    0.0205525709   -0.0000000000
N       -0.7546795668   -0.8188468760    0.0000000000
H        0.7320293372    0.7982942998    0.0000000000
3    
Image 10/11, Energy =   -92.8282158336 (+0.000 kcal/mol)
C        0.0205086862    0.0225589462    0.0000000000
N       -0.7491295810   -0.8240317894   -0.0000000000
H        0.7286208949    0.8014728432    0.0000000000
