3    
Image 0/11, Energy =   -92.8148741520 (+8.372 kcal/mol)
C       -0.7423976108   -0.8166733316   -0.0000000000
N        0.0415634250    0.0457411997    0.0000000000
H        0.7008341858    0.7709321319    0.0000000000
3    
Image 1/11, Energy =   -92.8039497431 (+15.227 kcal/mol)
C       -0.6236546893   -0.8494570080    0.0000000000
N       -0.1301422410    0.2139383490   -0.0000000000
H        0.7537969304    0.6355186592    0.0000000000
3    
Image 2/11, Energy =   -92.7724504865 (+34.993 kcal/mol)
C       -0.4485395605   -0.8151844295    0.0000000000
N       -0.2833161647    0.3649201827   -0.0000000000
H        0.7318557290    0.4502642517    0.0000000000
3    
Image 3/11, Energy =   -92.7442629733 (+52.681 kcal/mol)
C       -0.2856605434   -0.7530664716   -0.0000000000
N       -0.4146657137    0.4336681460    0.0000000000
H        0.7003262572    0.3193983284    0.0000000000
3    
Image 4/11, Energy =   -92.7236064005 (+65.643 kcal/mol)
C       -0.1114711160   -0.6377029794    0.0000000000
N       -0.6373134680    0.4265426664   -0.0000000000
H        0.7487845839    0.2111603077    0.0000000000
3    
Image 5/11, Energy =   -92.7402109675 (+55.224 kcal/mol)
C       -0.0088928132   -0.5227420904    0.0000000000
N       -0.8218149406    0.3174349977   -0.0000000000
H        0.8307077538    0.2053070914    0.0000000000
3    
Image 6/11, Energy =   -92.7746783518 (+33.595 kcal/mol)
C        0.0531178335   -0.3898204729    0.0000000000
N       -0.9622151948    0.1564092912   -0.0000000000
H        0.9090973613    0.2334111815    0.0000000000
3    
Image 7/11, Energy =   -92.8089590993 (+12.084 kcal/mol)
C        0.1079781734   -0.2131057010   -0.0000000000
N       -1.0336308309   -0.2225837332    0.0000000000
H        0.9256526575    0.4356894342   -0.0000000000
3    
Image 8/11, Energy =   -92.8242369115 (+2.497 kcal/mol)
C        0.0853860321   -0.0761689147    0.0000000000
N       -0.9625325679   -0.5326078413   -0.0000000000
H        0.8771465358    0.6087767560    0.0000000000
3    
Image 9/11, Energy =   -92.8282133643 (+0.002 kcal/mol)
C        0.0226502297    0.0205525709   -0.0000000000
N       -0.7546795668   -0.8188468760    0.0000000000
H        0.7320293372    0.7982942998    0.0000000000
3    
Image 10/11, Energy =   -92.8282158336 (+0.000 kcal/mol)
C        0.0205086862    0.0225589462    0.0000000000
N       -0.7491295810   -0.8240317894   -0.0000000000
H        0.7286208949    0.8014728432    0.0000000000
