3    
Image 0/11, Energy =   -92.8148741520 (+8.372 kcal/mol)
C       -0.7423976108   -0.8166733316   -0.0000000000
N        0.0415634250    0.0457411997    0.0000000000
H        0.7008341858    0.7709321319    0.0000000000
3    
Image 1/11, Energy =   -92.8043780268 (+14.958 kcal/mol)
C       -0.5995073328   -0.8694977360    0.0000000000
N       -0.1335312891    0.2070536330    0.0000000000
H        0.7330386228    0.6624441036    0.0000000000
3    
Image 2/11, Energy =   -92.7739739460 (+34.037 kcal/mol)
C       -0.4001564643   -0.8467832603    0.0000000000
N       -0.3009329564    0.3402087905    0.0000000000
H        0.7010894210    0.5065744678    0.0000000000
3    
Image 3/11, Energy =   -92.7454267950 (+51.951 kcal/mol)
C       -0.2478659697   -0.7727273052    0.0000000000
N       -0.4329092851    0.4073760738    0.0000000000
H        0.6807752547    0.3653512274    0.0000000000
3    
Image 4/11, Energy =   -92.7236064005 (+65.643 kcal/mol)
C       -0.1114711160   -0.6377029794    0.0000000000
N       -0.6373134680    0.4265426664   -0.0000000000
H        0.7487845839    0.2111603077    0.0000000000
3    
Image 5/11, Energy =   -92.7455247730 (+51.889 kcal/mol)
C       -0.0542550602   -0.4979228701    0.0000000000
N       -0.8078330643    0.3932092807   -0.0000000000
H        0.8620881245    0.1047135843    0.0000000000
3    
Image 6/11, Energy =   -92.7929433903 (+22.134 kcal/mol)
C       -0.0093741106   -0.3192934537    0.0000000000
N       -0.9711503269    0.3056607935   -0.0000000000
H        0.9805244374    0.0136326558    0.0000000000
3    
Image 7/11, Energy =   -92.8275414108 (+0.423 kcal/mol)
C        0.0398152342   -0.0379564440   -0.0000000000
N       -1.0899696545   -0.2124824026    0.0000000000
H        1.0501544203    0.2504388460   -0.0000000000
3    
Image 8/11, Energy =   -92.8281811072 (+0.022 kcal/mol)
C        0.0316504254    0.0064403547    0.0000000000
N       -0.9642999063   -0.5570047088    0.0000000000
H        0.9326494809    0.5505643542   -0.0000000000
3    
Image 9/11, Energy =   -92.8282133643 (+0.002 kcal/mol)
C        0.0226502297    0.0205525709   -0.0000000000
N       -0.7546795668   -0.8188468760    0.0000000000
H        0.7320293372    0.7982942998    0.0000000000
3    
Image 10/11, Energy =   -92.8282158336 (+0.000 kcal/mol)
C        0.0205086862    0.0225589462    0.0000000000
N       -0.7491295810   -0.8240317894   -0.0000000000
H        0.7286208949    0.8014728432    0.0000000000
