3    
Image 0/11, Energy =   -92.8148741520 (+8.372 kcal/mol)
C       -0.7423976108   -0.8166733316   -0.0000000000
N        0.0415634250    0.0457411997    0.0000000000
H        0.7008341858    0.7709321319    0.0000000000
3    
Image 1/11, Energy =   -92.8039525845 (+15.225 kcal/mol)
C       -0.6230749689   -0.8499187766    0.0000000000
N       -0.1303092595    0.2138256334    0.0000000000
H        0.7533842287    0.6360931437    0.0000000000
3    
Image 2/11, Energy =   -92.7725619045 (+34.923 kcal/mol)
C       -0.4451533935   -0.8175422153    0.0000000000
N       -0.2846758085    0.3631449278    0.0000000000
H        0.7298292052    0.4543972920    0.0000000000
3    
Image 3/11, Energy =   -92.7445162627 (+52.522 kcal/mol)
C       -0.2812207865   -0.7561744759   -0.0000000000
N       -0.4167816180    0.4299329807    0.0000000000
H        0.6980024045    0.3262414971    0.0000000000
3    
Image 4/11, Energy =   -92.7236064005 (+65.643 kcal/mol)
C       -0.1114711160   -0.6377029794    0.0000000000
N       -0.6373134680    0.4265426664   -0.0000000000
H        0.7487845839    0.2111603077    0.0000000000
3    
Image 5/11, Energy =   -92.7416192859 (+54.340 kcal/mol)
C       -0.0155375960   -0.5167051858    0.0000000000
N       -0.8228023201    0.3284132508   -0.0000000000
H        0.8383399161    0.1882919330    0.0000000000
3    
Image 6/11, Energy =   -92.7778729096 (+31.591 kcal/mol)
C        0.0448960987   -0.3786066884    0.0000000000
N       -0.9675437315    0.1704559547   -0.0000000000
H        0.9226476328    0.2081507333    0.0000000000
3    
Image 7/11, Energy =   -92.8125988960 (+9.800 kcal/mol)
C        0.0986315883   -0.1927912679   -0.0000000000
N       -1.0439483509   -0.2222291859    0.0000000000
H        0.9453167626    0.4150204538   -0.0000000000
3    
Image 8/11, Energy =   -92.8251721488 (+1.910 kcal/mol)
C        0.0775940253   -0.0653465609    0.0000000000
N       -0.9648312813   -0.5347292058   -0.0000000000
H        0.8872372560    0.6000757667    0.0000000000
3    
Image 9/11, Energy =   -92.8282133643 (+0.002 kcal/mol)
C        0.0226502297    0.0205525709   -0.0000000000
N       -0.7546795668   -0.8188468760    0.0000000000
H        0.7320293372    0.7982942998    0.0000000000
3    
Image 10/11, Energy =   -92.8282158336 (+0.000 kcal/mol)
C        0.0205086862    0.0225589462    0.0000000000
N       -0.7491295810   -0.8240317894   -0.0000000000
H        0.7286208949    0.8014728432    0.0000000000
