3    
Image 0/11, Energy =   -92.8148741520 (+8.372 kcal/mol)
C       -0.7423976108   -0.8166733316   -0.0000000000
N        0.0415634250    0.0457411997    0.0000000000
H        0.7008341858    0.7709321319    0.0000000000
3    
Image 1/11, Energy =   -92.8042841676 (+15.017 kcal/mol)
C       -0.6037044090   -0.8656630639    0.0000000000
N       -0.1333209835    0.2081141892    0.0000000000
H        0.7370253934    0.6575488756    0.0000000000
3    
Image 2/11, Energy =   -92.7738601968 (+34.109 kcal/mol)
C       -0.4052833541   -0.8438316890    0.0000000000
N       -0.2991370846    0.3425741278    0.0000000000
H        0.7044204392    0.5012575600    0.0000000000
3    
Image 3/11, Energy =   -92.7454010779 (+51.967 kcal/mol)
C       -0.2503460189   -0.7718032621    0.0000000000
N       -0.4317169440    0.4088206203    0.0000000000
H        0.6820629629    0.3629826381    0.0000000000
3    
Image 4/11, Energy =   -92.7236064005 (+65.643 kcal/mol)
C       -0.1114711160   -0.6377029794    0.0000000000
N       -0.6373134680    0.4265426664   -0.0000000000
H        0.7487845839    0.2111603077    0.0000000000
3    
Image 5/11, Energy =   -92.7454565229 (+51.932 kcal/mol)
C       -0.0525515022   -0.4984013420    0.0000000000
N       -0.8090236163    0.3902624861   -0.0000000000
H        0.8615751185    0.1081388509    0.0000000000
3    
Image 6/11, Energy =   -92.7924311120 (+22.455 kcal/mol)
C       -0.0057453431   -0.3216994901    0.0000000000
N       -0.9733924036    0.2943705853   -0.0000000000
H        0.9791377467    0.0273289008    0.0000000000
3    
Image 7/11, Energy =   -92.8271163660 (+0.690 kcal/mol)
C        0.0430180737   -0.0498234880   -0.0000000000
N       -1.0881424198   -0.2136163258    0.0000000000
H        1.0451243461    0.2634398132   -0.0000000000
3    
Image 8/11, Energy =   -92.8281425713 (+0.046 kcal/mol)
C        0.0340811896    0.0024381585    0.0000000000
N       -0.9650282460   -0.5555106327    0.0000000000
H        0.9309470563    0.5530724741   -0.0000000000
3    
Image 9/11, Energy =   -92.8282133643 (+0.002 kcal/mol)
C        0.0226502297    0.0205525709   -0.0000000000
N       -0.7546795668   -0.8188468760    0.0000000000
H        0.7320293372    0.7982942998    0.0000000000
3    
Image 10/11, Energy =   -92.8282158336 (+0.000 kcal/mol)
C        0.0205086862    0.0225589462    0.0000000000
N       -0.7491295810   -0.8240317894   -0.0000000000
H        0.7286208949    0.8014728432    0.0000000000
