3    
Image 0/11, Energy =   -92.8148741520 (+8.372 kcal/mol)
C       -0.7423976108   -0.8166733316   -0.0000000000
N        0.0415634250    0.0457411997    0.0000000000
H        0.7008341858    0.7709321319    0.0000000000
3    
Image 1/11, Energy =   -92.8044374927 (+14.921 kcal/mol)
C       -0.5966831609   -0.8706923765    0.0000000000
N       -0.1343700582    0.2051420891    0.0000000000
H        0.7310532199    0.6655502878    0.0000000000
3    
Image 2/11, Energy =   -92.7740289734 (+34.003 kcal/mol)
C       -0.3974217987   -0.8483168547    0.0000000000
N       -0.3018913103    0.3389758461    0.0000000000
H        0.6993131092    0.5093410063    0.0000000000
3    
Image 3/11, Energy =   -92.7454380357 (+51.944 kcal/mol)
C       -0.2466306004   -0.7731750689    0.0000000000
N       -0.4335024529    0.4066648128    0.0000000000
H        0.6801330532    0.3665102518    0.0000000000
3    
Image 4/11, Energy =   -92.7236064005 (+65.643 kcal/mol)
C       -0.1114711160   -0.6377029794    0.0000000000
N       -0.6373134680    0.4265426664   -0.0000000000
H        0.7487845839    0.2111603077    0.0000000000
3    
Image 5/11, Energy =   -92.7455574590 (+51.869 kcal/mol)
C       -0.0550167124   -0.4976982686    0.0000000000
N       -0.8073025797    0.3945305647   -0.0000000000
H        0.8623192921    0.1031676987    0.0000000000
3    
Image 6/11, Energy =   -92.7931669436 (+21.994 kcal/mol)
C       -0.0110769678   -0.3182602149    0.0000000000
N       -0.9699750423    0.3113076700   -0.0000000000
H        0.9810520101    0.0069525404    0.0000000000
3    
Image 7/11, Energy =   -92.8277147252 (+0.314 kcal/mol)
C        0.0382722278   -0.0320092738   -0.0000000000
N       -1.0907785362   -0.2118991117    0.0000000000
H        1.0525063084    0.2439083848   -0.0000000000
3    
Image 8/11, Energy =   -92.8281942295 (+0.014 kcal/mol)
C        0.0304248836    0.0082523243    0.0000000000
N       -0.9638556908   -0.5576674671    0.0000000000
H        0.9334308072    0.5494151427   -0.0000000000
3    
Image 9/11, Energy =   -92.8282133643 (+0.002 kcal/mol)
C        0.0226502297    0.0205525709   -0.0000000000
N       -0.7546795668   -0.8188468760    0.0000000000
H        0.7320293372    0.7982942998    0.0000000000
3    
Image 10/11, Energy =   -92.8282158336 (+0.000 kcal/mol)
C        0.0205086862    0.0225589462    0.0000000000
N       -0.7491295810   -0.8240317894   -0.0000000000
H        0.7286208949    0.8014728432    0.0000000000
