3    
Image 0/11, Energy =   -92.8148741520 (+8.372 kcal/mol)
C       -0.7423976108   -0.8166733316   -0.0000000000
N        0.0415634250    0.0457411997    0.0000000000
H        0.7008341858    0.7709321319    0.0000000000
3    
Image 1/11, Energy =   -92.8039516102 (+15.226 kcal/mol)
C       -0.6232506260   -0.8497850662    0.0000000000
N       -0.1302593800    0.2138652628   -0.0000000000
H        0.7535100063    0.6359198038    0.0000000000
3    
Image 2/11, Energy =   -92.7725311620 (+34.943 kcal/mol)
C       -0.4460561542   -0.8169096479    0.0000000000
N       -0.2843178036    0.3636219000    0.0000000000
H        0.7303739611    0.4532877525    0.0000000000
3    
Image 3/11, Energy =   -92.7444568931 (+52.560 kcal/mol)
C       -0.2823390966   -0.7554200750   -0.0000000000
N       -0.4162450165    0.4308502314    0.0000000000
H        0.6985841131    0.3245698457    0.0000000000
3    
Image 4/11, Energy =   -92.7236064005 (+65.643 kcal/mol)
C       -0.1114711160   -0.6377029794    0.0000000000
N       -0.6373134680    0.4265426664   -0.0000000000
H        0.7487845839    0.2111603077    0.0000000000
3    
Image 5/11, Energy =   -92.7412925829 (+54.545 kcal/mol)
C       -0.0138228896   -0.5181213963    0.0000000000
N       -0.8227097736    0.3256579299   -0.0000000000
H        0.8365326631    0.1924634645    0.0000000000
3    
Image 6/11, Energy =   -92.7770890459 (+32.083 kcal/mol)
C        0.0469545317   -0.3813829573    0.0000000000
N       -0.9662899272    0.1668200288   -0.0000000000
H        0.9193353955    0.2145629281    0.0000000000
3    
Image 7/11, Energy =   -92.8117266138 (+10.347 kcal/mol)
C        0.1011084580   -0.1978820489   -0.0000000000
N       -1.0415715532   -0.2223373547    0.0000000000
H        0.9404630952    0.4202194036   -0.0000000000
3    
Image 8/11, Energy =   -92.8249496943 (+2.050 kcal/mol)
C        0.0795312195   -0.0680823278    0.0000000000
N       -0.9643266212   -0.5341478838   -0.0000000000
H        0.8847954017    0.6022302116    0.0000000000
3    
Image 9/11, Energy =   -92.8282133643 (+0.002 kcal/mol)
C        0.0226502297    0.0205525709   -0.0000000000
N       -0.7546795668   -0.8188468760    0.0000000000
H        0.7320293372    0.7982942998    0.0000000000
3    
Image 10/11, Energy =   -92.8282158336 (+0.000 kcal/mol)
C        0.0205086862    0.0225589462    0.0000000000
N       -0.7491295810   -0.8240317894   -0.0000000000
H        0.7286208949    0.8014728432    0.0000000000
