3    
Image 0/11, Energy =   -92.8148741520 (+8.372 kcal/mol)
C       -0.7423976108   -0.8166733316   -0.0000000000
N        0.0415634250    0.0457411997    0.0000000000
H        0.7008341858    0.7709321319    0.0000000000
3    
Image 1/11, Energy =   -92.8039492118 (+15.228 kcal/mol)
C       -0.6238052777   -0.8493094312    0.0000000000
N       -0.1300962382    0.2139471296   -0.0000000000
H        0.7539015159    0.6353623016    0.0000000000
3    
Image 2/11, Energy =   -92.7722801924 (+35.100 kcal/mol)
C       -0.4545814702   -0.8124935936   -0.0000000000
N       -0.2805670214    0.3692772677   -0.0000000000
H        0.7351484969    0.4432163312    0.0000000000
3    
Image 3/11, Energy =   -92.7433849623 (+53.232 kcal/mol)
C       -0.2969605080   -0.7429269256    0.0000000000
N       -0.4094533117    0.4431565713    0.0000000000
H        0.7064138198    0.2997703596    0.0000000000
3    
Image 4/11, Energy =   -92.7236064005 (+65.643 kcal/mol)
C       -0.1114711160   -0.6377029794    0.0000000000
N       -0.6373134680    0.4265426664   -0.0000000000
H        0.7487845839    0.2111603077    0.0000000000
3    
Image 5/11, Energy =   -92.7256866230 (+64.338 kcal/mol)
C       -0.0194435477   -0.5285523267    0.0000000000
N       -0.7892576128    0.2757719720   -0.0000000000
H        0.8087011605    0.2527803547    0.0000000000
3    
Image 6/11, Energy =   -92.7652829788 (+39.491 kcal/mol)
C        0.0725840206   -0.4194016740    0.0000000000
N       -0.9412017577    0.1250012777   -0.0000000000
H        0.8686177370    0.2944003963    0.0000000000
3    
Image 7/11, Energy =   -92.7558712713 (+45.397 kcal/mol)
C        0.0886935349   -0.2606753611    0.0000000000
N       -0.9466899604   -0.2023397968   -0.0000000000
H        0.8579964254    0.4630151579    0.0000000000
3    
Image 8/11, Energy =   -92.8213263759 (+4.323 kcal/mol)
C        0.1048030545   -0.1019490483   -0.0000000000
N       -0.9521781630   -0.5296808712    0.0000000000
H        0.8473751086    0.6316299195    0.0000000000
3    
Image 9/11, Energy =   -92.8282128371 (+0.002 kcal/mol)
C        0.0229190248    0.0205009020    0.0000000000
N       -0.7547621168   -0.8189161487   -0.0000000000
H        0.7318430920    0.7984152414    0.0000000000
3    
Image 10/11, Energy =   -92.8282158336 (+0.000 kcal/mol)
C        0.0205086862    0.0225589462    0.0000000000
N       -0.7491295810   -0.8240317894   -0.0000000000
H        0.7286208949    0.8014728432    0.0000000000
