3    
Image 0/11, Energy =   -92.8148741520 (+8.372 kcal/mol)
C       -0.7423976108   -0.8166733316   -0.0000000000
N        0.0415634250    0.0457411997    0.0000000000
H        0.7008341858    0.7709321319    0.0000000000
3    
Image 1/11, Energy =   -92.8039492118 (+15.228 kcal/mol)
C       -0.6238052777   -0.8493094312    0.0000000000
N       -0.1300962382    0.2139471296   -0.0000000000
H        0.7539015159    0.6353623016    0.0000000000
3    
Image 2/11, Energy =   -92.7723329607 (+35.067 kcal/mol)
C       -0.4528148735   -0.8121787417    0.0000000000
N       -0.2815460498    0.3669331582   -0.0000000000
H        0.7343609280    0.4452455888    0.0000000000
3    
Image 3/11, Energy =   -92.7437450139 (+53.006 kcal/mol)
C       -0.2927875223   -0.7474578835   -0.0000000000
N       -0.4114160052    0.4403364956   -0.0000000000
H        0.7042035276    0.3071213923    0.0000000000
3    
Image 4/11, Energy =   -92.7236064005 (+65.643 kcal/mol)
C       -0.1114711160   -0.6377029794    0.0000000000
N       -0.6373134680    0.4265426664   -0.0000000000
H        0.7487845839    0.2111603077    0.0000000000
3    
Image 5/11, Energy =   -92.7370816680 (+57.188 kcal/mol)
C        0.0048971739   -0.5410760957    0.0000000000
N       -0.8212623028    0.3065370651   -0.0000000000
H        0.8163651288    0.2345390302    0.0000000000
3    
Image 6/11, Energy =   -92.7691320946 (+37.076 kcal/mol)
C        0.0676787532   -0.4089307929   -0.0000000000
N       -0.9524608517    0.1364025129   -0.0000000000
H        0.8847820984    0.2725282800    0.0000000000
3    
Image 7/11, Energy =   -92.7977808059 (+19.098 kcal/mol)
C        0.1488314469   -0.2452819861   -0.0000000000
N       -1.0358861879   -0.2160602097    0.0000000000
H        0.8870547410    0.4613421958   -0.0000000000
3    
Image 8/11, Energy =   -92.8224509706 (+3.618 kcal/mol)
C        0.0986320162   -0.0927607631    0.0000000000
N       -0.9570724393   -0.5303481569   -0.0000000000
H        0.8584404231    0.6231089200    0.0000000000
3    
Image 9/11, Energy =   -92.8282132887 (+0.002 kcal/mol)
C        0.0226598719    0.0205172043   -0.0000000000
N       -0.7546644396   -0.8188382067    0.0000000000
H        0.7320045677    0.7983209971    0.0000000000
3    
Image 10/11, Energy =   -92.8282158336 (+0.000 kcal/mol)
C        0.0205086862    0.0225589462    0.0000000000
N       -0.7491295810   -0.8240317894   -0.0000000000
H        0.7286208949    0.8014728432    0.0000000000
