3    
Image 0/11, Energy =   -92.8148741520 (+8.372 kcal/mol)
C       -0.7423976108   -0.8166733316   -0.0000000000
N        0.0415634250    0.0457411997    0.0000000000
H        0.7008341858    0.7709321319    0.0000000000
3    
Image 1/11, Energy =   -92.8039678541 (+15.216 kcal/mol)
C       -0.6211897485   -0.8513976535    0.0000000000
N       -0.1307606951    0.2133962074    0.0000000000
H        0.7519504443    0.6380014471    0.0000000000
3    
Image 2/11, Energy =   -92.7728259788 (+34.758 kcal/mol)
C       -0.4378097707   -0.8227041488    0.0000000000
N       -0.2874995435    0.3592084606    0.0000000000
H        0.7253093165    0.4634956917    0.0000000000
3    
Image 3/11, Energy =   -92.7448737208 (+52.298 kcal/mol)
C       -0.2732242416   -0.7611208168   -0.0000000000
N       -0.4206456573    0.4237446744    0.0000000000
H        0.6938698990    0.3373761427    0.0000000000
3    
Image 4/11, Energy =   -92.7236064005 (+65.643 kcal/mol)
C       -0.1114711160   -0.6377029794    0.0000000000
N       -0.6373134680    0.4265426664   -0.0000000000
H        0.7487845839    0.2111603077    0.0000000000
3    
Image 5/11, Energy =   -92.7434810316 (+53.172 kcal/mol)
C       -0.0274606937   -0.5084869828    0.0000000000
N       -0.8214297325    0.3476551251   -0.0000000000
H        0.8488904261    0.1608318547    0.0000000000
3    
Image 6/11, Energy =   -92.7830343560 (+28.352 kcal/mol)
C        0.0306106520   -0.3598158804    0.0000000000
N       -0.9747132430    0.1982727211   -0.0000000000
H        0.9441025909    0.1615431581    0.0000000000
3    
Image 7/11, Energy =   -92.8180911467 (+6.353 kcal/mol)
C        0.0813942162   -0.1563789131   -0.0000000000
N       -1.0590574880   -0.2210724872    0.0000000000
H        0.9776632718    0.3774514002   -0.0000000000
3    
Image 8/11, Energy =   -92.8265039832 (+1.074 kcal/mol)
C        0.0643104973   -0.0459386284    0.0000000000
N       -0.9672341065   -0.5395257050    0.0000000000
H        0.9029236092    0.5854643334    0.0000000000
3    
Image 9/11, Energy =   -92.8282133643 (+0.002 kcal/mol)
C        0.0226502297    0.0205525709   -0.0000000000
N       -0.7546795668   -0.8188468760    0.0000000000
H        0.7320293372    0.7982942998    0.0000000000
3    
Image 10/11, Energy =   -92.8282158336 (+0.000 kcal/mol)
C        0.0205086862    0.0225589462    0.0000000000
N       -0.7491295810   -0.8240317894   -0.0000000000
H        0.7286208949    0.8014728432    0.0000000000
