3    
Image 0/11, Energy =   -92.8148741520 (+8.372 kcal/mol)
C       -0.7423976108   -0.8166733316   -0.0000000000
N        0.0415634250    0.0457411997    0.0000000000
H        0.7008341858    0.7709321319    0.0000000000
3    
Image 1/11, Energy =   -92.8039492118 (+15.228 kcal/mol)
C       -0.6238052777   -0.8493094312    0.0000000000
N       -0.1300962382    0.2139471296   -0.0000000000
H        0.7539015159    0.6353623016    0.0000000000
3    
Image 2/11, Energy =   -92.7723144528 (+35.079 kcal/mol)
C       -0.4535870398   -0.8114953759    0.0000000000
N       -0.2812451135    0.3671202364   -0.0000000000
H        0.7348321582    0.4443751448    0.0000000000
3    
Image 3/11, Energy =   -92.7436102907 (+53.091 kcal/mol)
C       -0.2943713231   -0.7461724859   -0.0000000000
N       -0.4107426809    0.4420155873   -0.0000000000
H        0.7051140040    0.3041569033    0.0000000000
3    
Image 4/11, Energy =   -92.7236064005 (+65.643 kcal/mol)
C       -0.1114711160   -0.6377029794    0.0000000000
N       -0.6373134680    0.4265426664   -0.0000000000
H        0.7487845839    0.2111603077    0.0000000000
3    
Image 5/11, Energy =   -92.7348810122 (+58.568 kcal/mol)
C        0.0124602152   -0.5516806933    0.0000000000
N       -0.8250332820    0.3109516431   -0.0000000000
H        0.8125730667    0.2407290500    0.0000000000
3    
Image 6/11, Energy =   -92.7678534081 (+37.878 kcal/mol)
C        0.0716866969   -0.4133730308   -0.0000000000
N       -0.9505698584    0.1325109977   -0.0000000000
H        0.8788831615    0.2808620331    0.0000000000
3    
Image 7/11, Energy =   -92.7699691102 (+36.550 kcal/mol)
C        0.1920178786   -0.2518185253   -0.0000000000
N       -1.0640178667   -0.2026622223    0.0000000000
H        0.8719999881    0.4544807475   -0.0000000000
3    
Image 8/11, Energy =   -92.8220024122 (+3.899 kcal/mol)
C        0.1015120467   -0.0963616552    0.0000000000
N       -0.9554016748   -0.5298616357   -0.0000000000
H        0.8538896280    0.6262232908    0.0000000000
3    
Image 9/11, Energy =   -92.8282132521 (+0.002 kcal/mol)
C        0.0226641112    0.0205013445   -0.0000000000
N       -0.7546573905   -0.8188346089    0.0000000000
H        0.7319932792    0.7983332592    0.0000000000
3    
Image 10/11, Energy =   -92.8282158336 (+0.000 kcal/mol)
C        0.0205086862    0.0225589462    0.0000000000
N       -0.7491295810   -0.8240317894   -0.0000000000
H        0.7286208949    0.8014728432    0.0000000000
