3    
Image 0/11, Energy =   -92.8148741520 (+8.372 kcal/mol)
C       -0.7423976108   -0.8166733316   -0.0000000000
N        0.0415634250    0.0457411997    0.0000000000
H        0.7008341858    0.7709321319    0.0000000000
3    
Image 1/11, Energy =   -92.8043288606 (+14.989 kcal/mol)
C       -0.6015235671   -0.8669429524    0.0000000000
N       -0.1338093110    0.2069531005    0.0000000000
H        0.7353328790    0.6599898526    0.0000000000
3    
Image 2/11, Energy =   -92.7739176099 (+34.073 kcal/mol)
C       -0.4027784186   -0.8452870237    0.0000000000
N       -0.3000142886    0.3414093214    0.0000000000
H        0.7027927075    0.5038777008    0.0000000000
3    
Image 3/11, Energy =   -92.7454145801 (+51.959 kcal/mol)
C       -0.2491049583   -0.7722705308    0.0000000000
N       -0.4323138644    0.4080942576    0.0000000000
H        0.6814188227    0.3641762694    0.0000000000
3    
Image 4/11, Energy =   -92.7236064005 (+65.643 kcal/mol)
C       -0.1114711160   -0.6377029794    0.0000000000
N       -0.6373134680    0.4265426664   -0.0000000000
H        0.7487845839    0.2111603077    0.0000000000
3    
Image 5/11, Energy =   -92.7454919434 (+51.910 kcal/mol)
C       -0.0534329336   -0.4981550678    0.0000000000
N       -0.8084101007    0.3917882594   -0.0000000000
H        0.8618430343    0.1063668033    0.0000000000
3    
Image 6/11, Energy =   -92.7926994304 (+22.287 kcal/mol)
C       -0.0075405990   -0.3204665870    0.0000000000
N       -0.9723399368    0.3000382490   -0.0000000000
H        0.9798805358    0.0204283338    0.0000000000
3    
Image 7/11, Energy =   -92.8273419864 (+0.548 kcal/mol)
C        0.0413847397   -0.0438975764   -0.0000000000
N       -1.0890872763   -0.2130583633    0.0000000000
H        1.0477025367    0.2569559392   -0.0000000000
3    
Image 8/11, Energy =   -92.8281641032 (+0.032 kcal/mol)
C        0.0326602972    0.0043856804    0.0000000000
N       -0.9645147527   -0.5562070387    0.0000000000
H        0.9318544554    0.5518213583   -0.0000000000
3    
Image 9/11, Energy =   -92.8282133643 (+0.002 kcal/mol)
C        0.0226502297    0.0205525709   -0.0000000000
N       -0.7546795668   -0.8188468760    0.0000000000
H        0.7320293372    0.7982942998    0.0000000000
3    
Image 10/11, Energy =   -92.8282158336 (+0.000 kcal/mol)
C        0.0205086862    0.0225589462    0.0000000000
N       -0.7491295810   -0.8240317894   -0.0000000000
H        0.7286208949    0.8014728432    0.0000000000
