3    
Image 0/11, Energy =   -92.8148741520 (+8.372 kcal/mol)
C       -0.7423976108   -0.8166733316   -0.0000000000
N        0.0415634250    0.0457411997    0.0000000000
H        0.7008341858    0.7709321319    0.0000000000
3    
Image 1/11, Energy =   -92.8039950914 (+15.199 kcal/mol)
C       -0.6188790784   -0.8532274964    0.0000000000
N       -0.1312358259    0.2127959270    0.0000000000
H        0.7501149051    0.6404315707    0.0000000000
3    
Image 2/11, Energy =   -92.7730645356 (+34.608 kcal/mol)
C       -0.4313098245   -0.8272147709    0.0000000000
N       -0.2899020250    0.3557105065    0.0000000000
H        0.7212118512    0.4715042670    0.0000000000
3    
Image 3/11, Energy =   -92.7450705141 (+52.174 kcal/mol)
C       -0.2673383644   -0.7643079514   -0.0000000000
N       -0.4235005466    0.4195631828    0.0000000000
H        0.6908389110    0.3447447678    0.0000000000
3    
Image 4/11, Energy =   -92.7236064005 (+65.643 kcal/mol)
C       -0.1114711160   -0.6377029794    0.0000000000
N       -0.6373134680    0.4265426664   -0.0000000000
H        0.7487845839    0.2111603077    0.0000000000
3    
Image 5/11, Energy =   -92.7443673107 (+52.616 kcal/mol)
C       -0.0353661380   -0.5044039328    0.0000000000
N       -0.8188120971    0.3608507154   -0.0000000000
H        0.8541782351    0.1435532138    0.0000000000
3    
Image 6/11, Energy =   -92.7862586541 (+26.329 kcal/mol)
C        0.0206660470   -0.3474758299    0.0000000000
N       -0.9776834109    0.2208295047   -0.0000000000
H        0.9570173639    0.1266463234    0.0000000000
3    
Image 7/11, Energy =   -92.8213296128 (+4.321 kcal/mol)
C        0.0700050051   -0.1293602461   -0.0000000000
N       -1.0685888373   -0.2197040806    0.0000000000
H        0.9985838323    0.3490643265   -0.0000000000
3    
Image 8/11, Energy =   -92.8272042891 (+0.635 kcal/mol)
C        0.0552963589   -0.0321332308    0.0000000000
N       -0.9677448326   -0.5435632889    0.0000000000
H        0.9124484736    0.5756965197    0.0000000000
3    
Image 9/11, Energy =   -92.8282133643 (+0.002 kcal/mol)
C        0.0226502297    0.0205525709   -0.0000000000
N       -0.7546795668   -0.8188468760    0.0000000000
H        0.7320293372    0.7982942998    0.0000000000
3    
Image 10/11, Energy =   -92.8282158336 (+0.000 kcal/mol)
C        0.0205086862    0.0225589462    0.0000000000
N       -0.7491295810   -0.8240317894   -0.0000000000
H        0.7286208949    0.8014728432    0.0000000000
