3    
Image 0/11, Energy =   -92.8148741520 (+8.372 kcal/mol)
C       -0.7423976108   -0.8166733316   -0.0000000000
N        0.0415634250    0.0457411997    0.0000000000
H        0.7008341858    0.7709321319    0.0000000000
3    
Image 1/11, Energy =   -92.8040815290 (+15.145 kcal/mol)
C       -0.6135150914   -0.8575663653    0.0000000000
N       -0.1321326796    0.2112366736    0.0000000000
H        0.7456477720    0.6463296932    0.0000000000
3    
Image 2/11, Energy =   -92.7734499042 (+34.366 kcal/mol)
C       -0.4200492143   -0.8347273426    0.0000000000
N       -0.2939410727    0.3498099130    0.0000000000
H        0.7139902881    0.4849174305    0.0000000000
3    
Image 3/11, Energy =   -92.7452722076 (+52.048 kcal/mol)
C       -0.2589332953   -0.7682961173    0.0000000000
N       -0.4275717999    0.4140386174    0.0000000000
H        0.6865050952    0.3542574976    0.0000000000
3    
Image 4/11, Energy =   -92.7236064005 (+65.643 kcal/mol)
C       -0.1114711160   -0.6377029794    0.0000000000
N       -0.6373134680    0.4265426664   -0.0000000000
H        0.7487845839    0.2111603077    0.0000000000
3    
Image 5/11, Energy =   -92.7451018385 (+52.155 kcal/mol)
C       -0.0449860651   -0.5006383990    0.0000000000
N       -0.8139494283    0.3772412637   -0.0000000000
H        0.8589354934    0.1233971309    0.0000000000
3    
Image 6/11, Energy =   -92.7899072758 (+24.039 kcal/mol)
C        0.0072321776   -0.3327086035   -0.0000000000
N       -0.9780270923    0.2559064994   -0.0000000000
H        0.9707949146    0.0768021012    0.0000000000
3    
Image 7/11, Energy =   -92.8248330864 (+2.123 kcal/mol)
C        0.0555730346   -0.0903277092   -0.0000000000
N       -1.0797554122   -0.2170781745    0.0000000000
H        1.0241823776    0.3074058833   -0.0000000000
3    
Image 8/11, Energy =   -92.8278412895 (+0.235 kcal/mol)
C        0.0437593522   -0.0138184248    0.0000000000
N       -0.9669463767   -0.5495893205    0.0000000000
H        0.9231870244    0.5634077452   -0.0000000000
3    
Image 9/11, Energy =   -92.8282133643 (+0.002 kcal/mol)
C        0.0226502297    0.0205525709   -0.0000000000
N       -0.7546795668   -0.8188468760    0.0000000000
H        0.7320293372    0.7982942998    0.0000000000
3    
Image 10/11, Energy =   -92.8282158336 (+0.000 kcal/mol)
C        0.0205086862    0.0225589462    0.0000000000
N       -0.7491295810   -0.8240317894   -0.0000000000
H        0.7286208949    0.8014728432    0.0000000000
