3    
Image 0/11, Energy =   -92.8148741520 (+8.372 kcal/mol)
C       -0.7423976108   -0.8166733316   -0.0000000000
N        0.0415634250    0.0457411997    0.0000000000
H        0.7008341858    0.7709321319    0.0000000000
3    
Image 1/11, Energy =   -92.8039508260 (+15.227 kcal/mol)
C       -0.6234039928   -0.8496603058    0.0000000000
N       -0.1302178370    0.2138927521   -0.0000000000
H        0.7536218301    0.6357675540    0.0000000000
3    
Image 2/11, Energy =   -92.7725022254 (+34.961 kcal/mol)
C       -0.4469234596   -0.8163040727    0.0000000000
N       -0.2839710381    0.3640781189    0.0000000000
H        0.7308945011    0.4522259586    0.0000000000
3    
Image 3/11, Energy =   -92.7443951868 (+52.598 kcal/mol)
C       -0.2834515139   -0.7546523010   -0.0000000000
N       -0.4157130710    0.4317767482    0.0000000000
H        0.6991645849    0.3228755552    0.0000000000
3    
Image 4/11, Energy =   -92.7236064005 (+65.643 kcal/mol)
C       -0.1114711160   -0.6377029794    0.0000000000
N       -0.6373134680    0.4265426664   -0.0000000000
H        0.7487845839    0.2111603077    0.0000000000
3    
Image 5/11, Energy =   -92.7409503090 (+54.760 kcal/mol)
C       -0.0121372541   -0.5195873982    0.0000000000
N       -0.8225194260    0.3229000297   -0.0000000000
H        0.8346566800    0.1966873669    0.0000000000
3    
Image 6/11, Energy =   -92.7762957184 (+32.580 kcal/mol)
C        0.0490098166   -0.3841764582    0.0000000000
N       -0.9649851324    0.1632645817   -0.0000000000
H        0.9159753158    0.2209118761    0.0000000000
3    
Image 7/11, Energy =   -92.8108316853 (+10.909 kcal/mol)
C        0.1034948636   -0.2029593326   -0.0000000000
N       -1.0390689455   -0.2224411088    0.0000000000
H        0.9355740820    0.4254004414   -0.0000000000
3    
Image 8/11, Energy =   -92.8247196221 (+2.194 kcal/mol)
C        0.0814746107   -0.0708014144    0.0000000000
N       -0.9637799118   -0.5335975238   -0.0000000000
H        0.8823053011    0.6043989382    0.0000000000
3    
Image 9/11, Energy =   -92.8282133643 (+0.002 kcal/mol)
C        0.0226502297    0.0205525709   -0.0000000000
N       -0.7546795668   -0.8188468760    0.0000000000
H        0.7320293372    0.7982942998    0.0000000000
3    
Image 10/11, Energy =   -92.8282158336 (+0.000 kcal/mol)
C        0.0205086862    0.0225589462    0.0000000000
N       -0.7491295810   -0.8240317894   -0.0000000000
H        0.7286208949    0.8014728432    0.0000000000
