3    
Image 0/11, Energy =   -92.8148741520 (+8.372 kcal/mol)
C       -0.7423976108   -0.8166733316   -0.0000000000
N        0.0415634250    0.0457411997    0.0000000000
H        0.7008341858    0.7709321319    0.0000000000
3    
Image 1/11, Energy =   -92.8053169512 (+14.369 kcal/mol)
C       -0.5516888516   -0.9045186951    0.0000000000
N       -0.1381728323    0.1913832842   -0.0000000000
H        0.6898616840    0.7131354068    0.0000000000
3    
Image 2/11, Energy =   -92.7743192553 (+33.821 kcal/mol)
C       -0.3783762032   -0.8582934785    0.0000000000
N       -0.3085295613    0.3308727879    0.0000000000
H        0.6869057645    0.5274206857    0.0000000000
3    
Image 3/11, Energy =   -92.7454731941 (+51.922 kcal/mol)
C       -0.2417416526   -0.7748691240    0.0000000000
N       -0.4358418795    0.4038996050    0.0000000000
H        0.6775835320    0.3709695140    0.0000000000
3    
Image 4/11, Energy =   -92.7236064005 (+65.643 kcal/mol)
C       -0.1114711160   -0.6377029794    0.0000000000
N       -0.6373134680    0.4265426664   -0.0000000000
H        0.7487845839    0.2111603077    0.0000000000
3    
Image 5/11, Energy =   -92.7456254296 (+51.826 kcal/mol)
C       -0.0563432428   -0.4972561363    0.0000000000
N       -0.8064055786    0.3968299013    0.0000000000
H        0.8627488214    0.1004262298   -0.0000000000
3    
Image 6/11, Energy =   -92.7944839909 (+21.167 kcal/mol)
C       -0.0199642598   -0.3116743613   -0.0000000000
N       -0.9632960840    0.3406345088    0.0000000000
H        0.9832603438   -0.0289601529   -0.0000000000
3    
Image 7/11, Energy =   -92.8282133467 (+0.002 kcal/mol)
C        0.0303597596    0.0030103321   -0.0000000000
N       -1.0940354042   -0.2082413223    0.0000000000
H        1.0636756445    0.2052309893   -0.0000000000
3    
Image 8/11, Energy =   -92.8282139222 (+0.001 kcal/mol)
C        0.0275571809    0.0132281962    0.0000000000
N       -0.9629253174   -0.5595078309    0.0000000000
H        0.9353681364    0.5462796347   -0.0000000000
3    
Image 9/11, Energy =   -92.8282133643 (+0.002 kcal/mol)
C        0.0226502297    0.0205525709   -0.0000000000
N       -0.7546795668   -0.8188468760    0.0000000000
H        0.7320293372    0.7982942998    0.0000000000
3    
Image 10/11, Energy =   -92.8282158336 (+0.000 kcal/mol)
C        0.0205086862    0.0225589462    0.0000000000
N       -0.7491295810   -0.8240317894   -0.0000000000
H        0.7286208949    0.8014728432    0.0000000000
