3    
Image 0/11, Energy =   -92.8148741520 (+8.372 kcal/mol)
C       -0.7423976108   -0.8166733316   -0.0000000000
N        0.0415634250    0.0457411997    0.0000000000
H        0.7008341858    0.7709321319    0.0000000000
3    
Image 1/11, Energy =   -92.8039492118 (+15.228 kcal/mol)
C       -0.6238052777   -0.8493094312    0.0000000000
N       -0.1300962382    0.2139471296   -0.0000000000
H        0.7539015159    0.6353623016    0.0000000000
3    
Image 2/11, Energy =   -92.7723124270 (+35.080 kcal/mol)
C       -0.4536694258   -0.8114073179    0.0000000000
N       -0.2812155021    0.3671238557   -0.0000000000
H        0.7348849328    0.4442834674    0.0000000000
3    
Image 3/11, Energy =   -92.7435943231 (+53.101 kcal/mol)
C       -0.2945507551   -0.7460298363   -0.0000000000
N       -0.4106690805    0.4422181023   -0.0000000000
H        0.7052198355    0.3038117388    0.0000000000
3    
Image 4/11, Energy =   -92.7236064005 (+65.643 kcal/mol)
C       -0.1114711160   -0.6377029794    0.0000000000
N       -0.6373134680    0.4265426664   -0.0000000000
H        0.7487845839    0.2111603077    0.0000000000
3    
Image 5/11, Energy =   -92.7344086717 (+58.865 kcal/mol)
C        0.0136510985   -0.5533757245    0.0000000000
N       -0.8257403611    0.3119999527   -0.0000000000
H        0.8120892626    0.2413757715    0.0000000000
3    
Image 6/11, Energy =   -92.7676999577 (+37.974 kcal/mol)
C        0.0721880696   -0.4138991677   -0.0000000000
N       -0.9503533890    0.1320760484   -0.0000000000
H        0.8781653194    0.2818231193    0.0000000000
3    
Image 7/11, Energy =   -92.7636097019 (+40.541 kcal/mol)
C        0.1989537991   -0.2524859736   -0.0000000000
N       -1.0686544318   -0.1998631523    0.0000000000
H        0.8697006327    0.4523491259   -0.0000000000
3    
Image 8/11, Energy =   -92.8219491139 (+3.932 kcal/mol)
C        0.1018008598   -0.0967920508    0.0000000000
N       -0.9551678703   -0.5297806429   -0.0000000000
H        0.8533670106    0.6265726937    0.0000000000
3    
Image 9/11, Energy =   -92.8282132148 (+0.002 kcal/mol)
C        0.0226670268    0.0204857504   -0.0000000000
N       -0.7546499597   -0.8188306539    0.0000000000
H        0.7319829330    0.7983448982    0.0000000000
3    
Image 10/11, Energy =   -92.8282158336 (+0.000 kcal/mol)
C        0.0205086862    0.0225589462    0.0000000000
N       -0.7491295810   -0.8240317894   -0.0000000000
H        0.7286208949    0.8014728432    0.0000000000
