3    
Image 0/11, Energy =   -92.8148741520 (+8.372 kcal/mol)
C       -0.7423976108   -0.8166733316   -0.0000000000
N        0.0415634250    0.0457411997    0.0000000000
H        0.7008341858    0.7709321319    0.0000000000
3    
Image 1/11, Energy =   -92.8040640909 (+15.155 kcal/mol)
C       -0.6144778216   -0.8567608970    0.0000000000
N       -0.1319986296    0.2115123259    0.0000000000
H        0.7464764522    0.6452485725    0.0000000000
3    
Image 2/11, Energy =   -92.7733923377 (+34.402 kcal/mol)
C       -0.4218378756   -0.8335649694    0.0000000000
N       -0.2933062940    0.3507274619    0.0000000000
H        0.7151441707    0.4828375087    0.0000000000
3    
Image 3/11, Energy =   -92.7452482707 (+52.063 kcal/mol)
C       -0.2601431461   -0.7677589037    0.0000000000
N       -0.4269864934    0.4148053783    0.0000000000
H        0.6871296396    0.3529535232    0.0000000000
3    
Image 4/11, Energy =   -92.7236064005 (+65.643 kcal/mol)
C       -0.1114711160   -0.6377029794    0.0000000000
N       -0.6373134680    0.4265426664   -0.0000000000
H        0.7487845839    0.2111603077    0.0000000000
3    
Image 5/11, Energy =   -92.7450260998 (+52.202 kcal/mol)
C       -0.0437316404   -0.5010622882    0.0000000000
N       -0.8146806782    0.3750897784   -0.0000000000
H        0.8584123185    0.1259725055    0.0000000000
3    
Image 6/11, Energy =   -92.7894542668 (+24.323 kcal/mol)
C        0.0091176974   -0.3346016481   -0.0000000000
N       -0.9782761170    0.2506694775   -0.0000000000
H        0.9691584197    0.0839321678    0.0000000000
3    
Image 7/11, Energy =   -92.8244077636 (+2.390 kcal/mol)
C        0.0575181411   -0.0959805672   -0.0000000000
N       -1.0783273069   -0.2175036244    0.0000000000
H        1.0208091658    0.3134841913   -0.0000000000
3    
Image 8/11, Energy =   -92.8277730584 (+0.278 kcal/mol)
C        0.0453373573   -0.0163113367    0.0000000000
N       -0.9671752314   -0.5487314271    0.0000000000
H        0.9218378740    0.5650427638   -0.0000000000
3    
Image 9/11, Energy =   -92.8282133643 (+0.002 kcal/mol)
C        0.0226502297    0.0205525709   -0.0000000000
N       -0.7546795668   -0.8188468760    0.0000000000
H        0.7320293372    0.7982942998    0.0000000000
3    
Image 10/11, Energy =   -92.8282158336 (+0.000 kcal/mol)
C        0.0205086862    0.0225589462    0.0000000000
N       -0.7491295810   -0.8240317894   -0.0000000000
H        0.7286208949    0.8014728432    0.0000000000
