3    
Image 0/11, Energy =   -92.8148741520 (+8.372 kcal/mol)
C       -0.7423976108   -0.8166733316   -0.0000000000
N        0.0415634250    0.0457411997    0.0000000000
H        0.7008341858    0.7709321319    0.0000000000
3    
Image 1/11, Energy =   -92.8047615904 (+14.718 kcal/mol)
C       -0.5825045214   -0.8823922861    0.0000000000
N       -0.1353358107    0.2007890459    0.0000000000
H        0.7178403326    0.6816032393    0.0000000000
3    
Image 2/11, Energy =   -92.7742319445 (+33.875 kcal/mol)
C       -0.3849452911   -0.8549553897    0.0000000000
N       -0.3062620644    0.3335867522    0.0000000000
H        0.6912073555    0.5213686334    0.0000000000
3    
Image 3/11, Energy =   -92.7454731941 (+51.922 kcal/mol)
C       -0.2417416526   -0.7748691240    0.0000000000
N       -0.4358418795    0.4038996050    0.0000000000
H        0.6775835320    0.3709695140    0.0000000000
3    
Image 4/11, Energy =   -92.7236064005 (+65.643 kcal/mol)
C       -0.1114711160   -0.6377029794    0.0000000000
N       -0.6373134680    0.4265426664   -0.0000000000
H        0.7487845839    0.2111603077    0.0000000000
3    
Image 5/11, Energy =   -92.7456254296 (+51.826 kcal/mol)
C       -0.0563432428   -0.4972561363    0.0000000000
N       -0.8064055786    0.3968299013    0.0000000000
H        0.8627488214    0.1004262298   -0.0000000000
3    
Image 6/11, Energy =   -92.7938668816 (+21.554 kcal/mol)
C       -0.0166697706   -0.3152164457    0.0000000000
N       -0.9654334509    0.3331420719   -0.0000000000
H        0.9821032215   -0.0179256314    0.0000000000
3    
Image 7/11, Energy =   -92.8281503809 (+0.041 kcal/mol)
C        0.0326027750   -0.0080503357   -0.0000000000
N       -1.0932716472   -0.2094728287    0.0000000000
H        1.0606688722    0.2175231636   -0.0000000000
3    
Image 8/11, Energy =   -92.8282139222 (+0.001 kcal/mol)
C        0.0275571809    0.0132281962    0.0000000000
N       -0.9629253174   -0.5595078309    0.0000000000
H        0.9353681364    0.5462796347   -0.0000000000
3    
Image 9/11, Energy =   -92.8282133643 (+0.002 kcal/mol)
C        0.0226502297    0.0205525709   -0.0000000000
N       -0.7546795668   -0.8188468760    0.0000000000
H        0.7320293372    0.7982942998    0.0000000000
3    
Image 10/11, Energy =   -92.8282158336 (+0.000 kcal/mol)
C        0.0205086862    0.0225589462    0.0000000000
N       -0.7491295810   -0.8240317894   -0.0000000000
H        0.7286208949    0.8014728432    0.0000000000
