3    
Image 0/11, Energy =   -92.8148741520 (+8.372 kcal/mol)
C       -0.7423976108   -0.8166733316   -0.0000000000
N        0.0415634250    0.0457411997    0.0000000000
H        0.7008341858    0.7709321319    0.0000000000
3    
Image 1/11, Energy =   -92.8039537799 (+15.225 kcal/mol)
C       -0.6228807935   -0.8500736407    0.0000000000
N       -0.1303589512    0.2137870650    0.0000000000
H        0.7532397451    0.6362865763    0.0000000000
3    
Image 2/11, Energy =   -92.7725943932 (+34.903 kcal/mol)
C       -0.4442159060   -0.8182006724    0.0000000000
N       -0.2850446827    0.3626475251    0.0000000000
H        0.7292605917    0.4555531517    0.0000000000
3    
Image 3/11, Energy =   -92.7445734741 (+52.486 kcal/mol)
C       -0.2800965743   -0.7569164967   -0.0000000000
N       -0.4173224138    0.4290242548    0.0000000000
H        0.6974189881    0.3278922435    0.0000000000
3    
Image 4/11, Energy =   -92.7236064005 (+65.643 kcal/mol)
C       -0.1114711160   -0.6377029794    0.0000000000
N       -0.6373134680    0.4265426664   -0.0000000000
H        0.7487845839    0.2111603077    0.0000000000
3    
Image 5/11, Energy =   -92.7419309536 (+54.145 kcal/mol)
C       -0.0172657289   -0.5153422870    0.0000000000
N       -0.8228095408    0.3311673214   -0.0000000000
H        0.8400752697    0.1841749635    0.0000000000
3    
Image 6/11, Energy =   -92.7786468224 (+31.105 kcal/mol)
C        0.0428378007   -0.3758487200    0.0000000000
N       -0.9687457584    0.1741723102   -0.0000000000
H        0.9259079576    0.2016764092    0.0000000000
3    
Image 7/11, Energy =   -92.8134494648 (+9.266 kcal/mol)
C        0.0961118947   -0.1876800329   -0.0000000000
N       -1.0462378076   -0.2221134518    0.0000000000
H        0.9501259129    0.4097934847   -0.0000000000
3    
Image 8/11, Energy =   -92.8253868017 (+1.775 kcal/mol)
C        0.0756638587   -0.0625974891    0.0000000000
N       -0.9652957097   -0.5353388658   -0.0000000000
H        0.8896318510    0.5979363549    0.0000000000
3    
Image 9/11, Energy =   -92.8282133643 (+0.002 kcal/mol)
C        0.0226502297    0.0205525709   -0.0000000000
N       -0.7546795668   -0.8188468760    0.0000000000
H        0.7320293372    0.7982942998    0.0000000000
3    
Image 10/11, Energy =   -92.8282158336 (+0.000 kcal/mol)
C        0.0205086862    0.0225589462    0.0000000000
N       -0.7491295810   -0.8240317894   -0.0000000000
H        0.7286208949    0.8014728432    0.0000000000
