3    
Image 0/11, Energy =   -92.8148741520 (+8.372 kcal/mol)
C       -0.7423976108   -0.8166733316   -0.0000000000
N        0.0415634250    0.0457411997    0.0000000000
H        0.7008341858    0.7709321319    0.0000000000
3    
Image 1/11, Energy =   -92.8040032247 (+15.194 kcal/mol)
C       -0.6182885911   -0.8537034332    0.0000000000
N       -0.1313450952    0.2126372232    0.0000000000
H        0.7496336872    0.6410662114    0.0000000000
3    
Image 2/11, Energy =   -92.7731165745 (+34.575 kcal/mol)
C       -0.4298653363   -0.8282025544    0.0000000000
N       -0.2904271956    0.3549392589    0.0000000000
H        0.7202925335    0.4732632978    0.0000000000
3    
Image 3/11, Energy =   -92.7451044457 (+52.153 kcal/mol)
C       -0.2661458620   -0.7649119354   -0.0000000000
N       -0.4240788030    0.4187495524    0.0000000000
H        0.6902246649    0.3461623819    0.0000000000
3    
Image 4/11, Energy =   -92.7236064005 (+65.643 kcal/mol)
C       -0.1114711160   -0.6377029794    0.0000000000
N       -0.6373134680    0.4265426664   -0.0000000000
H        0.7487845839    0.2111603077    0.0000000000
3    
Image 5/11, Energy =   -92.7445050132 (+52.529 kcal/mol)
C       -0.0368561487   -0.5037391937    0.0000000000
N       -0.8181751405    0.3633695470   -0.0000000000
H        0.8550312891    0.1403696429    0.0000000000
3    
Image 6/11, Energy =   -92.7868465726 (+25.960 kcal/mol)
C        0.0187082184   -0.3451616910    0.0000000000
N       -0.9780205358    0.2256091770   -0.0000000000
H        0.9593123175    0.1195525121    0.0000000000
3    
Image 7/11, Energy =   -92.8219057142 (+3.960 kcal/mol)
C        0.0678266914   -0.1238558017   -0.0000000000
N       -1.0703494080   -0.2193786423    0.0000000000
H        1.0025227166    0.3432344438   -0.0000000000
3    
Image 8/11, Energy =   -92.8273192381 (+0.563 kcal/mol)
C        0.0535585311   -0.0294189964    0.0000000000
N       -0.9677319456   -0.5444106165    0.0000000000
H        0.9141734145    0.5738296128   -0.0000000000
3    
Image 9/11, Energy =   -92.8282133643 (+0.002 kcal/mol)
C        0.0226502297    0.0205525709   -0.0000000000
N       -0.7546795668   -0.8188468760    0.0000000000
H        0.7320293372    0.7982942998    0.0000000000
3    
Image 10/11, Energy =   -92.8282158336 (+0.000 kcal/mol)
C        0.0205086862    0.0225589462    0.0000000000
N       -0.7491295810   -0.8240317894   -0.0000000000
H        0.7286208949    0.8014728432    0.0000000000
