3    
Image 0/11, Energy =   -92.8148741520 (+8.372 kcal/mol)
C       -0.7423976108   -0.8166733316   -0.0000000000
N        0.0415634250    0.0457411997    0.0000000000
H        0.7008341858    0.7709321319    0.0000000000
3    
Image 1/11, Energy =   -92.8046649604 (+14.778 kcal/mol)
C       -0.5868678735   -0.8788913318    0.0000000000
N       -0.1350213051    0.2021533645    0.0000000000
H        0.7218891792    0.6767379668    0.0000000000
3    
Image 2/11, Energy =   -92.7741841389 (+33.905 kcal/mol)
C       -0.3883116838   -0.8532172270    0.0000000000
N       -0.3050825147    0.3350068067    0.0000000000
H        0.6933941986    0.5182104166    0.0000000000
3    
Image 3/11, Energy =   -92.7454656178 (+51.927 kcal/mol)
C       -0.2429491507   -0.7744598863    0.0000000000
N       -0.4352651644    0.4045761122    0.0000000000
H        0.6782143151    0.3698837693    0.0000000000
3    
Image 4/11, Energy =   -92.7236064005 (+65.643 kcal/mol)
C       -0.1114711160   -0.6377029794    0.0000000000
N       -0.6373134680    0.4265426664   -0.0000000000
H        0.7487845839    0.2111603077    0.0000000000
3    
Image 5/11, Energy =   -92.7456254296 (+51.826 kcal/mol)
C       -0.0563432428   -0.4972561363    0.0000000000
N       -0.8064055786    0.3968299013    0.0000000000
H        0.8627488214    0.1004262298   -0.0000000000
3    
Image 6/11, Energy =   -92.7937231648 (+21.644 kcal/mol)
C       -0.0165566480   -0.3152451996    0.0000000000
N       -0.9656486789    0.3274093183   -0.0000000000
H        0.9822053269   -0.0121641236    0.0000000000
3    
Image 7/11, Energy =   -92.8280801702 (+0.085 kcal/mol)
C        0.0339975743   -0.0140470718   -0.0000000000
N       -1.0927909311   -0.2100717294    0.0000000000
H        1.0587933568    0.2241188004   -0.0000000000
3    
Image 8/11, Energy =   -92.8282139222 (+0.001 kcal/mol)
C        0.0275571809    0.0132281962    0.0000000000
N       -0.9629253174   -0.5595078309    0.0000000000
H        0.9353681364    0.5462796347   -0.0000000000
3    
Image 9/11, Energy =   -92.8282133643 (+0.002 kcal/mol)
C        0.0226502297    0.0205525709   -0.0000000000
N       -0.7546795668   -0.8188468760    0.0000000000
H        0.7320293372    0.7982942998    0.0000000000
3    
Image 10/11, Energy =   -92.8282158336 (+0.000 kcal/mol)
C        0.0205086862    0.0225589462    0.0000000000
N       -0.7491295810   -0.8240317894   -0.0000000000
H        0.7286208949    0.8014728432    0.0000000000
