3    
Image 0/11, Energy =   -92.8148741520 (+8.372 kcal/mol)
C       -0.7423976108   -0.8166733316   -0.0000000000
N        0.0415634250    0.0457411997    0.0000000000
H        0.7008341858    0.7709321319    0.0000000000
3    
Image 1/11, Energy =   -92.8041768441 (+15.085 kcal/mol)
C       -0.6086880183   -0.8615834025    0.0000000000
N       -0.1327477026    0.2097626756    0.0000000000
H        0.7414357218    0.6518207281    0.0000000000
3    
Image 2/11, Energy =   -92.7736842504 (+34.219 kcal/mol)
C       -0.4121394067   -0.8397131333    0.0000000000
N       -0.2967314706    0.3458585787    0.0000000000
H        0.7088708780    0.4938545543    0.0000000000
3    
Image 3/11, Energy =   -92.7453534891 (+51.997 kcal/mol)
C       -0.2540526791   -0.7703503957    0.0000000000
N       -0.4299300512    0.4110294085    0.0000000000
H        0.6839827303    0.3593209841    0.0000000000
3    
Image 4/11, Energy =   -92.7236064005 (+65.643 kcal/mol)
C       -0.1114711160   -0.6377029794    0.0000000000
N       -0.6373134680    0.4265426664   -0.0000000000
H        0.7487845839    0.2111603077    0.0000000000
3    
Image 5/11, Energy =   -92.7453341602 (+52.009 kcal/mol)
C       -0.0495761282   -0.4992315816    0.0000000000
N       -0.8110530954    0.3851358254   -0.0000000000
H        0.8606292236    0.1140957514    0.0000000000
3    
Image 6/11, Energy =   -92.7914852077 (+23.049 kcal/mol)
C       -0.0002335196   -0.3259337955    0.0000000000
N       -0.9759848968    0.2775496395   -0.0000000000
H        0.9762184163    0.0483841525    0.0000000000
3    
Image 7/11, Energy =   -92.8262868027 (+1.210 kcal/mol)
C        0.0481750759   -0.0673978589   -0.0000000000
N       -1.0848987013   -0.2152011715    0.0000000000
H        1.0367236254    0.2825990299   -0.0000000000
3    
Image 8/11, Energy =   -92.8280468251 (+0.106 kcal/mol)
C        0.0376099442   -0.0044167651    0.0000000000
N       -0.9656220234   -0.5529008900    0.0000000000
H        0.9280120792    0.5573176551   -0.0000000000
3    
Image 9/11, Energy =   -92.8282133643 (+0.002 kcal/mol)
C        0.0226502297    0.0205525709   -0.0000000000
N       -0.7546795668   -0.8188468760    0.0000000000
H        0.7320293372    0.7982942998    0.0000000000
3    
Image 10/11, Energy =   -92.8282158336 (+0.000 kcal/mol)
C        0.0205086862    0.0225589462    0.0000000000
N       -0.7491295810   -0.8240317894   -0.0000000000
H        0.7286208949    0.8014728432    0.0000000000
