3    
Image 0/11, Energy =   -92.8148741520 (+8.372 kcal/mol)
C       -0.7423976108   -0.8166733316   -0.0000000000
N        0.0415634250    0.0457411997    0.0000000000
H        0.7008341858    0.7709321319    0.0000000000
3    
Image 1/11, Energy =   -92.8040350669 (+15.174 kcal/mol)
C       -0.6161920395   -0.8553810608    0.0000000000
N       -0.1317185717    0.2120314447   -0.0000000000
H        0.7479106121    0.6433496175    0.0000000000
3    
Image 2/11, Energy =   -92.7732792958 (+34.473 kcal/mol)
C       -0.4252214820   -0.8313326568    0.0000000000
N       -0.2920996685    0.3524853644    0.0000000000
H        0.7173211517    0.4788472941    0.0000000000
3    
Image 3/11, Energy =   -92.7451957107 (+52.096 kcal/mol)
C       -0.2625529107   -0.7666533620   -0.0000000000
N       -0.4258199183    0.4163597908    0.0000000000
H        0.6883728289    0.3502935696    0.0000000000
3    
Image 4/11, Energy =   -92.7236064005 (+65.643 kcal/mol)
C       -0.1114711160   -0.6377029794    0.0000000000
N       -0.6373134680    0.4265426664   -0.0000000000
H        0.7487845839    0.2111603077    0.0000000000
3    
Image 5/11, Energy =   -92.7448483030 (+52.314 kcal/mol)
C       -0.0410997603   -0.5020140015    0.0000000000
N       -0.8161233390    0.3705871076   -0.0000000000
H        0.8572230993    0.1314268897    0.0000000000
3    
Image 6/11, Energy =   -92.7884789008 (+24.935 kcal/mol)
C        0.0129174058   -0.3386132779    0.0000000000
N       -0.9784678078    0.2404161286   -0.0000000000
H        0.9655504020    0.0981971469    0.0000000000
3    
Image 7/11, Energy =   -92.8234822775 (+2.970 kcal/mol)
C        0.0615251751   -0.1072049918   -0.0000000000
N       -1.0753027952   -0.2183035332    0.0000000000
H        1.0137776201    0.3255085248   -0.0000000000
3    
Image 8/11, Energy =   -92.8276148098 (+0.377 kcal/mol)
C        0.0485291375   -0.0214510985    0.0000000000
N       -0.9674912503   -0.5469933517    0.0000000000
H        0.9189621129    0.5684444503   -0.0000000000
3    
Image 9/11, Energy =   -92.8282133643 (+0.002 kcal/mol)
C        0.0226502297    0.0205525709   -0.0000000000
N       -0.7546795668   -0.8188468760    0.0000000000
H        0.7320293372    0.7982942998    0.0000000000
3    
Image 10/11, Energy =   -92.8282158336 (+0.000 kcal/mol)
C        0.0205086862    0.0225589462    0.0000000000
N       -0.7491295810   -0.8240317894   -0.0000000000
H        0.7286208949    0.8014728432    0.0000000000
