3    
Image 0/11, Energy =   -92.8148741520 (+8.372 kcal/mol)
C       -0.7423976108   -0.8166733316   -0.0000000000
N        0.0415634250    0.0457411997    0.0000000000
H        0.7008341858    0.7709321319    0.0000000000
3    
Image 1/11, Energy =   -92.8042085767 (+15.065 kcal/mol)
C       -0.6071105271   -0.8626313000    0.0000000000
N       -0.1330660322    0.2090389005    0.0000000000
H        0.7401765603    0.6535924006    0.0000000000
3    
Image 2/11, Energy =   -92.7737431603 (+34.182 kcal/mol)
C       -0.4099510786   -0.8410481767    0.0000000000
N       -0.2975003238    0.3447962010    0.0000000000
H        0.7074514030    0.4962519752    0.0000000000
3    
Image 3/11, Energy =   -92.7453705027 (+51.986 kcal/mol)
C       -0.2528215060   -0.7708423435    0.0000000000
N       -0.4305240525    0.4102892828    0.0000000000
H        0.6833455584    0.3605530575    0.0000000000
3    
Image 4/11, Energy =   -92.7236064005 (+65.643 kcal/mol)
C       -0.1114711160   -0.6377029794    0.0000000000
N       -0.6373134680    0.4265426664   -0.0000000000
H        0.7487845839    0.2111603077    0.0000000000
3    
Image 5/11, Energy =   -92.7453782978 (+51.981 kcal/mol)
C       -0.0506140681   -0.4989382766    0.0000000000
N       -0.8103545397    0.3869234548   -0.0000000000
H        0.8609686078    0.1120148170    0.0000000000
3    
Image 6/11, Energy =   -92.7918220081 (+22.837 kcal/mol)
C       -0.0020597847   -0.3244553818   -0.0000000000
N       -0.9752328583    0.2831254362    0.0000000000
H        0.9772926430    0.0413299419    0.0000000000
3    
Image 7/11, Energy =   -92.8265883630 (+1.021 kcal/mol)
C        0.0464115492   -0.0615760280   -0.0000000000
N       -1.0860329892   -0.2146899109    0.0000000000
H        1.0396214400    0.2762659384   -0.0000000000
3    
Image 8/11, Energy =   -92.8280815650 (+0.084 kcal/mol)
C        0.0370880670   -0.0016960470    0.0000000000
N       -0.9660378747   -0.5540272668    0.0000000000
H        0.9289498076    0.5557233138   -0.0000000000
3    
Image 9/11, Energy =   -92.8282133643 (+0.002 kcal/mol)
C        0.0226502297    0.0205525709   -0.0000000000
N       -0.7546795668   -0.8188468760    0.0000000000
H        0.7320293372    0.7982942998    0.0000000000
3    
Image 10/11, Energy =   -92.8282158336 (+0.000 kcal/mol)
C        0.0205086862    0.0225589462    0.0000000000
N       -0.7491295810   -0.8240317894   -0.0000000000
H        0.7286208949    0.8014728432    0.0000000000
