3    
Image 0/11, Energy =   -92.8148741520 (+8.372 kcal/mol)
C       -0.7423976108   -0.8166733316   -0.0000000000
N        0.0415634250    0.0457411997    0.0000000000
H        0.7008341858    0.7709321319    0.0000000000
3    
Image 1/11, Energy =   -92.8039818176 (+15.207 kcal/mol)
C       -0.6199235684   -0.8523964294    0.0000000000
N       -0.1310296812    0.2130742245    0.0000000000
H        0.7509532504    0.6393222062    0.0000000000
3    
Image 2/11, Energy =   -92.7729645475 (+34.671 kcal/mol)
C       -0.4340496186   -0.8253252627    0.0000000000
N       -0.2888979539    0.3571809936    0.0000000000
H        0.7229475745    0.4681442720    0.0000000000
3    
Image 3/11, Energy =   -92.7449973095 (+52.220 kcal/mol)
C       -0.2697091832   -0.7630665497   -0.0000000000
N       -0.4223505704    0.4212132084    0.0000000000
H        0.6920597536    0.3418533409    0.0000000000
3    
Image 4/11, Energy =   -92.7236064005 (+65.643 kcal/mol)
C       -0.1114711160   -0.6377029794    0.0000000000
N       -0.6373134680    0.4265426664   -0.0000000000
H        0.7487845839    0.2111603077    0.0000000000
3    
Image 5/11, Energy =   -92.7440538423 (+52.812 kcal/mol)
C       -0.0322885419   -0.5058790312    0.0000000000
N       -0.8199858253    0.3556778470   -0.0000000000
H        0.8522743672    0.1502011808    0.0000000000
3    
Image 6/11, Energy =   -92.7850233305 (+27.104 kcal/mol)
C        0.0246142937   -0.3522700578    0.0000000000
N       -0.9767430101    0.2115341111   -0.0000000000
H        0.9521287164    0.1407359452    0.0000000000
3    
Image 7/11, Energy =   -92.8201048228 (+5.090 kcal/mol)
C        0.0744646371   -0.1402722796   -0.0000000000
N       -1.0649173979   -0.2203037360    0.0000000000
H        0.9904527608    0.3605760155   -0.0000000000
3    
Image 8/11, Energy =   -92.8269493973 (+0.795 kcal/mol)
C        0.0588411177   -0.0376204208    0.0000000000
N       -0.9676568500   -0.5419023132    0.0000000000
H        0.9088157323    0.5795227340    0.0000000000
3    
Image 9/11, Energy =   -92.8282133643 (+0.002 kcal/mol)
C        0.0226502297    0.0205525709   -0.0000000000
N       -0.7546795668   -0.8188468760    0.0000000000
H        0.7320293372    0.7982942998    0.0000000000
3    
Image 10/11, Energy =   -92.8282158336 (+0.000 kcal/mol)
C        0.0205086862    0.0225589462    0.0000000000
N       -0.7491295810   -0.8240317894   -0.0000000000
H        0.7286208949    0.8014728432    0.0000000000
