3    
Image 0/11, Energy =   -92.8148741520 (+8.372 kcal/mol)
C       -0.7423976108   -0.8166733316   -0.0000000000
N        0.0415634250    0.0457411997    0.0000000000
H        0.7008341858    0.7709321319    0.0000000000
3    
Image 1/11, Energy =   -92.8039492118 (+15.228 kcal/mol)
C       -0.6238052777   -0.8493094312    0.0000000000
N       -0.1300962382    0.2139471296   -0.0000000000
H        0.7539015159    0.6353623016    0.0000000000
3    
Image 2/11, Energy =   -92.7723247781 (+35.072 kcal/mol)
C       -0.4531561281   -0.8118992772    0.0000000000
N       -0.2814093778    0.3670406132   -0.0000000000
H        0.7345655107    0.4448586693    0.0000000000
3    
Image 3/11, Energy =   -92.7436883518 (+53.042 kcal/mol)
C       -0.2934680842   -0.7469022086   -0.0000000000
N       -0.4111223104    0.4410387777   -0.0000000000
H        0.7045903946    0.3058634355    0.0000000000
3    
Image 4/11, Energy =   -92.7236064005 (+65.643 kcal/mol)
C       -0.1114711160   -0.6377029794    0.0000000000
N       -0.6373134680    0.4265426664   -0.0000000000
H        0.7487845839    0.2111603077    0.0000000000
3    
Image 5/11, Energy =   -92.7364316012 (+57.595 kcal/mol)
C        0.0075910874   -0.5448446370    0.0000000000
N       -0.8224052960    0.3075689400   -0.0000000000
H        0.8148142086    0.2372756966    0.0000000000
3    
Image 6/11, Energy =   -92.7685773237 (+37.424 kcal/mol)
C        0.0693277030   -0.4108543817   -0.0000000000
N       -0.9515818206    0.1347004007   -0.0000000000
H        0.8822541176    0.2761539810    0.0000000000
3    
Image 7/11, Energy =   -92.7907318314 (+23.522 kcal/mol)
C        0.1635421316   -0.2481457138   -0.0000000000
N       -1.0450535776   -0.2123252643    0.0000000000
H        0.8815114460    0.4604709780   -0.0000000000
3    
Image 8/11, Energy =   -92.8222618240 (+3.736 kcal/mol)
C        0.0999185023   -0.0942838105    0.0000000000
N       -0.9564193479   -0.5301710270   -0.0000000000
H        0.8565008456    0.6244548375    0.0000000000
3    
Image 9/11, Energy =   -92.8282132887 (+0.002 kcal/mol)
C        0.0226598719    0.0205172043   -0.0000000000
N       -0.7546644396   -0.8188382067    0.0000000000
H        0.7320045677    0.7983209971    0.0000000000
3    
Image 10/11, Energy =   -92.8282158336 (+0.000 kcal/mol)
C        0.0205086862    0.0225589462    0.0000000000
N       -0.7491295810   -0.8240317894   -0.0000000000
H        0.7286208949    0.8014728432    0.0000000000
