3    
Image 0/11, Energy =   -92.8148741520 (+8.372 kcal/mol)
C       -0.7423976108   -0.8166733316   -0.0000000000
N        0.0415634250    0.0457411997    0.0000000000
H        0.7008341858    0.7709321319    0.0000000000
3    
Image 1/11, Energy =   -92.8045797417 (+14.832 kcal/mol)
C       -0.5906742725   -0.8759147498    0.0000000000
N       -0.1346832308    0.2034565284    0.0000000000
H        0.7253575040    0.6724582213    0.0000000000
3    
Image 2/11, Energy =   -92.7741343606 (+33.937 kcal/mol)
C       -0.3915144127   -0.8515292277    0.0000000000
N       -0.3039602092    0.3363782389    0.0000000000
H        0.6954746221    0.5151509856    0.0000000000
3    
Image 3/11, Energy =   -92.7454575655 (+51.932 kcal/mol)
C       -0.2441671489   -0.7740438471    0.0000000000
N       -0.4346828810    0.4052616831    0.0000000000
H        0.6788500299    0.3687821593    0.0000000000
3    
Image 4/11, Energy =   -92.7236064005 (+65.643 kcal/mol)
C       -0.1114711160   -0.6377029794    0.0000000000
N       -0.6373134680    0.4265426664   -0.0000000000
H        0.7487845839    0.2111603077    0.0000000000
3    
Image 5/11, Energy =   -92.7456254296 (+51.826 kcal/mol)
C       -0.0563432428   -0.4972561363    0.0000000000
N       -0.8064055786    0.3968299013    0.0000000000
H        0.8627488214    0.1004262298   -0.0000000000
3    
Image 6/11, Energy =   -92.7935565393 (+21.749 kcal/mol)
C       -0.0144425346   -0.3163756059    0.0000000000
N       -0.9673932565    0.3223755425   -0.0000000000
H        0.9818357911   -0.0059999414    0.0000000000
3    
Image 7/11, Energy =   -92.8279843599 (+0.145 kcal/mol)
C        0.0353543216   -0.0200387660   -0.0000000000
N       -1.0921958858   -0.2106929455    0.0000000000
H        1.0568415643    0.2307317107   -0.0000000000
3    
Image 8/11, Energy =   -92.8282101647 (+0.004 kcal/mol)
C        0.0284409209    0.0117090548    0.0000000000
N       -0.9632274800   -0.5589584891    0.0000000000
H        0.9347865591    0.5472494342   -0.0000000000
3    
Image 9/11, Energy =   -92.8282133643 (+0.002 kcal/mol)
C        0.0226502297    0.0205525709   -0.0000000000
N       -0.7546795668   -0.8188468760    0.0000000000
H        0.7320293372    0.7982942998    0.0000000000
3    
Image 10/11, Energy =   -92.8282158336 (+0.000 kcal/mol)
C        0.0205086862    0.0225589462    0.0000000000
N       -0.7491295810   -0.8240317894   -0.0000000000
H        0.7286208949    0.8014728432    0.0000000000
