6    
From optimize.out: Frame 49 / 50, Energy=    -170.1785506334
C       -0.3689809213   -1.4576547333   -1.3858823888
C       -0.1536196598   -0.5941379366   -0.5627748972
H        0.0498937406    0.2058682490    0.1931202398
H       -0.5557149997   -2.2230003294   -2.1042277553
C        0.4068909426    1.6172446306    1.5286738892
N        0.6215308974    2.4516801197    2.3310909121
6    
From optimize.out: Frame 48 / 50, Energy=    -170.1785457189
C       -0.3431059125   -1.4654363963   -1.3841111558
C       -0.1759948715   -0.5872206174   -0.5641336835
H        0.0126135257    0.2204463522    0.1864729907
H       -0.5436431446   -2.2310969704   -2.0983059811
C        0.4006396502    1.6360616416    1.5117874632
N        0.6494907527    2.4272459903    2.3482903666
6    
From optimize.out: Frame 46 / 50, Energy=    -170.1785211095
C       -0.3491777920   -1.4699497143   -1.3791074344
C       -0.2072433627   -0.5662040572   -0.5832725915
H       -0.0321753935    0.2436017057    0.1660588472
H       -0.4972439352   -2.2598711143   -2.0831919208
C        0.3978528829    1.6541927618    1.5050766309
N        0.6879876005    2.3982304183    2.3744364685
6    
From optimize.out: Frame 45 / 50, Energy=    -170.1785053676
C       -0.3556027601   -1.4761694176   -1.3791816487
C       -0.2437836652   -0.5461345132   -0.6054269881
H       -0.0817301301    0.2813484313    0.1349222306
H       -0.4446803037   -2.2945278315   -2.0609798836
C        0.3916839763    1.6667410494    1.5121209863
N        0.7341128829    2.3687422816    2.3985453035
6    
From optimize.out: Frame 44 / 50, Energy=    -170.1784873390
C       -0.3566062486   -1.4770879458   -1.3676420152
C       -0.2806153309   -0.5299832428   -0.6104790633
H       -0.1220801803    0.3315831605    0.0926134381
H       -0.3948284584   -2.3137444660   -2.0320806471
C        0.3813286582    1.6666165079    1.5068387487
N        0.7728015600    2.3226159862    2.4107495389
6    
From optimize.out: Frame 43 / 50, Energy=    -170.1784730774
C       -0.3655174057   -1.4638990441   -1.3577900538
C       -0.2901021194   -0.5072413301   -0.6174912698
H       -0.1411546825    0.3615368861    0.0731841990
H       -0.3578391114   -2.3247067819   -1.9901320285
C        0.3492388083    1.6883156607    1.4805296427
N        0.8053745107    2.2459946094    2.4116995104
6    
From optimize.out: Frame 41 / 50, Energy=    -170.1784189254
C       -0.3752647520   -1.4646830445   -1.3783051379
C       -0.2953799212   -0.4827810034   -0.6664913967
H       -0.1817675215    0.3483537559    0.0743116280
H       -0.3299949708   -2.3585225949   -1.9673900823
C        0.3376603683    1.7082232204    1.5120220557
N        0.8447467971    2.2494096665    2.4258529331
6    
From optimize.out: Frame 40 / 50, Energy=    -170.1783929881
C       -0.3666897942   -1.4677373018   -1.3817059255
C       -0.3339529159   -0.4667404116   -0.7020919893
H       -0.2514797112    0.3550308338    0.0440167737
H       -0.2842986405   -2.3734679846   -1.9430376449
C        0.3572611381    1.6794114899    1.5549971708
N        0.8791599237    2.2735033743    2.4278216153
6    
From optimize.out: Frame 39 / 50, Energy=    -170.1783067089
C       -0.3677669545   -1.4926248294   -1.3665070678
C       -0.3768493528   -0.4496336301   -0.7256039011
H       -0.2569301767    0.3459508043    0.0129863962
H       -0.2619209231   -2.3824225160   -1.9573322395
C        0.3718495720    1.6644961363    1.5964715777
N        0.8916178351    2.3142340349    2.4399852345
6    
From optimize.out: Frame 38 / 50, Energy=    -170.1782383131
C       -0.3569715605   -1.5097543948   -1.3370628431
C       -0.4443749998   -0.4420558501   -0.7422266603
H       -0.2915995509    0.3557394002   -0.0296294624
H       -0.2157840492   -2.3676501395   -1.9525695661
C        0.4071116154    1.6266513524    1.6244010725
N        0.9016185450    2.3370696319    2.4370874594
6    
From optimize.out: Frame 36 / 50, Energy=    -170.1778375275
C       -0.3413062175   -1.5166588445   -1.3121845410
C       -0.5064399356   -0.4450403146   -0.7486845349
H       -0.3476596898    0.3748958617   -0.0567085756
H       -0.1683656035   -2.3533909941   -1.9499093340
C        0.4584519816    1.5904215234    1.6383252609
N        0.9053194649    2.3497727681    2.4291617246
6    
From optimize.out: Frame 35 / 50, Energy=    -170.1775174458
C       -0.3231079039   -1.5100761768   -1.2959364999
C       -0.5554032062   -0.4491211426   -0.7487541012
H       -0.4259113093    0.3989793470   -0.0792850087
H       -0.1166419574   -2.3372004687   -1.9289224258
C        0.5072178454    1.5558098788    1.6352973070
N        0.9138465314    2.3416085624    2.4176007286
6    
From optimize.out: Frame 34 / 50, Energy=    -170.1772988097
C       -0.3049892143   -1.4971086028   -1.2843231041
C       -0.5965109274   -0.4592594462   -0.7494261452
H       -0.5088140848    0.4260517008   -0.0909036545
H       -0.0677310267   -2.3238992230   -1.9073090471
C        0.5571422656    1.5260987433    1.6276269742
N        0.9209029876    2.3281168278    2.4043349766
6    
From optimize.out: Frame 33 / 50, Energy=    -170.1771619074
C       -0.2926358373   -1.4799033383   -1.2743543754
C       -0.6110919215   -0.4438314371   -0.7337731617
H       -0.5981778669    0.4513786185   -0.1059478953
H       -0.0242025745   -2.3286715991   -1.8871798530
C        0.5896714643    1.5072425970    1.6030481399
N        0.9364367358    2.2937851590    2.3982071455
6    
From optimize.out: Frame 31 / 50, Energy=    -170.1768941422
C       -0.2825641758   -1.4662977292   -1.2940154398
C       -0.6278088779   -0.4452001295   -0.7333130104
H       -0.6878144419    0.4640382686   -0.1115040461
H        0.0178236501   -2.3287806166   -1.8555320438
C        0.6261952257    1.4819059291    1.5944885267
N        0.9541686198    2.2943342777    2.3998760135
6    
From optimize.out: Frame 30 / 50, Energy=    -170.1766891527
C       -0.2767663362   -1.4476168435   -1.2937535165
C       -0.6329314805   -0.4268716186   -0.7327091581
H       -0.7529917923    0.4789158541   -0.1397016962
H        0.0601826273   -2.3117808354   -1.7937232528
C        0.6229526408    1.4575282274    1.5724975036
N        0.9795543409    2.2498252161    2.3873901200
6    
From optimize.out: Frame 29 / 50, Energy=    -170.1763938113
C       -0.2702276518   -1.4193492556   -1.2879434979
C       -0.6309037496   -0.4082764522   -0.7278428527
H       -0.8243533125    0.4984887869   -0.1612468886
H        0.0992253311   -2.3074534999   -1.7432713883
C        0.6236244175    1.4381925371    1.5478231965
N        1.0026349653    2.1983978837    2.3724814310
6    
From optimize.out: Frame 28 / 50, Energy=    -170.1759365002
C       -0.2644631800   -1.3947902313   -1.2796484683
C       -0.6300508075   -0.3882483079   -0.7238957125
H       -0.8848475125    0.5160261773   -0.1879221001
H        0.1372029304   -2.2943137688   -1.6864294810
C        0.6167427955    1.4182562964    1.5223683550
N        1.0254157741    2.1430698343    2.3555274070
6    
From optimize.out: Frame 26 / 50, Energy=    -170.1748526371
C       -0.2585654843   -1.3714031537   -1.2733891679
C       -0.6307057853   -0.3668632390   -0.7207379085
H       -0.9436854688    0.5312336288   -0.2171990192
H        0.1756721178   -2.2802414708   -1.6266859922
C        0.6067576670    1.3969174544    1.4972030297
N        1.0505269536    2.0903567803    2.3408090581
6    
From optimize.out: Frame 25 / 50, Energy=    -170.1730243952
C       -0.2519211520   -1.3463291407   -1.2709644170
C       -0.6319125243   -0.3444367333   -0.7171517097
H       -1.0083923463    0.5450934941   -0.2457631060
H        0.2151716181   -2.2723178430   -1.5690307817
C        0.5984841579    1.3748007639    1.4724623914
N        1.0785702465    2.0431894590    2.3304476230
6    
From optimize.out: Frame 24 / 50, Energy=    -170.1714237630
C       -0.2477300852   -1.3281120235   -1.2564042242
C       -0.6316296392   -0.3212473644   -0.7095680386
H       -1.0536129659    0.5605496993   -0.2779992001
H        0.2505062624   -2.2481408149   -1.5095974257
C        0.5848969425    1.3571537277    1.4430796756
N        1.0975694854    1.9797967758    2.3104892129
6    
From optimize.out: Frame 23 / 50, Energy=    -170.1698748959
C       -0.2430091334   -1.3099291037   -1.2420560411
C       -0.6308476325   -0.2975110328   -0.7011755004
H       -1.1014295721    0.5807478850   -0.3081949945
H        0.2857647939   -2.2290612035   -1.4533844041
C        0.5714213358    1.3413659768    1.4128751534
N        1.1181002083    1.9143874782    2.2919357867
6    
From optimize.out: Frame 21 / 50, Energy=    -170.1672492836
C       -0.2381854196   -1.2917528159   -1.2277489736
C       -0.6299688298   -0.2736686272   -0.6926260965
H       -1.1497496246    0.6018656951   -0.3379951084
H        0.3210085646   -2.2109701474   -1.3977959102
C        0.5579673736    1.3259388019    1.3825112561
N        1.1389279358    1.8485870935    2.2736548326
6    
From optimize.out: Frame 20 / 50, Energy=    -170.1665054172
C       -0.2343043109   -1.2740513912   -1.2098195460
C       -0.6241141620   -0.2475719976   -0.6793962755
H       -1.1897642267    0.6246820964   -0.3676800260
H        0.3511800932   -2.1930121996   -1.3457265584
C        0.5403910802    1.3146156530    1.3507908803
N        1.1566115262    1.7753378391    2.2518315256
6    
From optimize.out: Frame 19 / 50, Energy=    -170.1655334159
C       -0.2305422579   -1.2568994688   -1.1922767408
C       -0.6193160691   -0.2224073889   -0.6668226181
H       -1.2278174375    0.6448326856   -0.3972091030
H        0.3812964566   -2.1717188715   -1.2922630570
C        0.5234487221    1.3026239875    1.3196227204
N        1.1729305858    1.7035690561    2.2289487986
6    
From optimize.out: Frame 18 / 50, Energy=    -170.1643399477
C       -0.2265427454   -1.2441446685   -1.1834352308
C       -0.6313191290   -0.2090372889   -0.6669368539
H       -1.2595446663    0.6379789164   -0.4254635384
H        0.4180927576   -2.1194619817   -1.2209482960
C        0.5181981818    1.2786473743    1.2954722988
N        1.1811156014    1.6560176484    2.2013116203
6    
From optimize.out: Frame 16 / 50, Energy=    -170.1613863179
C       -0.2225432329   -1.2313898683   -1.1745937208
C       -0.6433221890   -0.1956671890   -0.6670510896
H       -1.2912718951    0.6311251472   -0.4537179738
H        0.4548890586   -2.0672050919   -1.1496335350
C        0.5129476414    1.2546707612    1.2713218772
N        1.1893006169    1.6084662408    2.1736744420
6    
From optimize.out: Frame 15 / 50, Energy=    -170.1590062464
C       -0.2185437204   -1.2186350680   -1.1657522107
C       -0.6553252489   -0.1822970890   -0.6671653254
H       -1.3229991240    0.6242713781   -0.4819724092
H        0.4916853597   -2.0149482021   -1.0783187739
C        0.5076971011    1.2306941480    1.2471714556
N        1.1974856325    1.5609148331    2.1460372637
6    
From optimize.out: Frame 14 / 50, Energy=    -170.1574196232
C       -0.2171973860   -1.2064503125   -1.1445407431
C       -0.6572265250   -0.1627976332   -0.6564864927
H       -1.3468741824    0.6293441429   -0.5111940189
H        0.5215495197   -1.9725619492   -1.0215447942
C        0.4974885967    1.2165193690    1.2159702542
N        1.2022599771    1.4959463831    2.1177957947
6    
From optimize.out: Frame 13 / 50, Energy=    -170.1539873893
C       -0.2181280469   -1.1947547775   -1.1127132015
C       -0.6504583063   -0.1380378767   -0.6365448949
H       -1.3640103964    0.6446524290   -0.5412456713
H        0.5454644175   -1.9386468175   -0.9772499202
C        0.4830250969    1.2107566637    1.1787179731
N        1.2041072352    1.4160303791    2.0890357148
6    
From optimize.out: Frame 10 / 50, Energy=    -170.1482169112
C       -0.2228651596   -1.1848493844   -1.0716667881
C       -0.6432556451   -0.1132098481   -0.6107637977
H       -1.3758345616    0.6589112894   -0.5652115466
H        0.5676189149   -1.9053069347   -0.9477386419
C        0.4780771479    1.2100281561    1.1347587616
N        1.1962593034    1.3344267217    2.0606220128
6    
From optimize.out: Frame 9 / 50, Energy=    -170.1469769753
C       -0.2285662524   -1.1756553187   -1.0207389429
C       -0.6341852653   -0.0870190509   -0.5815358431
H       -1.3811838326    0.6759351094   -0.5885339779
H        0.5848587089   -1.8778172174   -0.9327542769
C        0.4755511289    1.2114550597    1.0911933177
N        1.1835255125    1.2531014179    2.0323697230
6    
From optimize.out: Frame 8 / 50, Energy=    -170.1460582226
C       -0.2328609445   -1.1662699677   -0.9593500681
C       -0.6231671599   -0.0594601598   -0.5495108651
H       -1.3789495245    0.6958784409   -0.6109065855
H        0.5947439834   -1.8576432462   -0.9336435245
C        0.4736182062    1.2141410717    1.0501812496
N        1.1666154394    1.1733538610    2.0032297936
6    
From optimize.out: Frame 7 / 50, Energy=    -170.1450492445
C       -0.2320754513   -1.1551816765   -0.8920931778
C       -0.6118372681   -0.0317771901   -0.5169667792
H       -1.3709515703    0.7167223038   -0.6303432051
H        0.5971046168   -1.8416091349   -0.9441001918
C        0.4700095560    1.2156910881    1.0127054965
N        1.1477501169    1.0961546096    1.9707978574
6    
From optimize.out: Frame 5 / 50, Energy=    -170.1404621601
C       -0.2262382089   -1.1426011880   -0.8258423223
C       -0.6034703079   -0.0061838332   -0.4860249106
H       -1.3606719843    0.7363263811   -0.6445660002
H        0.5970115662   -1.8211368732   -0.9523528019
C        0.4654685916    1.2136352458    0.9757575723
N        1.1279003432    1.0199602676    1.9330284628
6    
From optimize.out: Frame 4 / 50, Energy=    -170.1365822036
C       -0.2186408569   -1.1305502135   -0.7642284592
C       -0.6006574162    0.0154736629   -0.4585509045
H       -1.3492718911    0.7549124133   -0.6544406570
H        0.5998172007   -1.7907168257   -0.9510902467
C        0.4615025184    1.2067205513    0.9377703322
N        1.1072504452    0.9441604116    1.8905399352
6    
From optimize.out: Frame 3 / 50, Energy=    -170.1309441791
C       -0.2118091707   -1.1207238786   -0.7085168063
C       -0.6042580311    0.0321267111   -0.4357507828
H       -1.3369959833    0.7723973870   -0.6612194994
H        0.6078058555   -1.7492774327   -0.9388967312
C        0.4594459511    1.1951528541    0.8989366002
N        1.0858113785    0.8703243591    1.8454472195
6    
From optimize.out: Frame 2 / 50, Energy=    -170.1211028592
C       -0.2049007615   -1.1113854442   -0.6592126454
C       -0.6119821767    0.0448340394   -0.4190504432
H       -1.3244955086    0.7859154239   -0.6650813803
H        0.6190098973   -1.6993205786   -0.9162935546
C        0.4576242395    1.1801092225    0.8621287716
N        1.0647443100    0.7998473370    1.7975092519
6    
C2H2+CN->C3H2N atoms 5-8,53-54 frame 9199 charge -0.815 sz +0.000 sz^2 0.000
C       -0.1959959698   -1.1005790224   -0.6133697671
C       -0.6190084172    0.0569716925   -0.4057710691
H       -1.3129855063    0.7954204405   -0.6665295220
H        0.6291569668   -1.6471772363   -0.8891531240
C        0.4539838139    1.1648544469    0.8278094129
N        1.0448491127    0.7305096789    1.7470140692
6    
C2H2+CN->C3H2N atoms 5-8,53-54 frame 9200 charge -0.815 sz +0.000 sz^2 0.000
C       -0.1811069657   -1.0851622605   -0.5754813850
C       -0.6223413928    0.0689156057   -0.4004434622
H       -1.3045458003    0.7943673232   -0.6618320356
H        0.6348795103   -1.5917335926   -0.8523610919
C        0.4447741641    1.1503047039    0.8002045828
N        1.0283404845    0.6633082202    1.6899133919
6    
C2H2+CN->C3H2N atoms 5-8,53-54 frame 9201 charge -0.816 sz +0.000 sz^2 0.000
C       -0.1671715397   -1.0707776803   -0.5395139330
C       -0.6258243060    0.0810135751   -0.3941963746
H       -1.2965161898    0.7955968804   -0.6562989443
H        0.6412413079   -1.5381053822   -0.8163326046
C        0.4361009595    1.1360611619    0.7727014939
N        1.0121697682    0.5962114450    1.6336403627
6    
C2H2+CN->C3H2N atoms 5-8,53-54 frame 9202 charge -0.818 sz +0.000 sz^2 0.000
C       -0.1989722533   -1.0847847520   -0.5706883959
C       -0.6319448737    0.0957748312   -0.3618933139
H       -1.3128402945    0.8893157611   -0.6255901741
H        0.6801209878   -1.5684585837   -0.8114848864
C        0.4505192736    1.1302400318    0.7530221062
N        1.0131171600    0.5379127115    1.6166346640
6    
From optimize.out: Frame 1 / 27, Energy=    -170.1082421840
C       -0.2212810210   -1.0945545764   -0.6058112383
C       -0.6300147747    0.0878036121   -0.3602133339
H       -1.3212996156    0.8960846499   -0.6223640669
H        0.6894358546   -1.5981393318   -0.8230906994
C        0.4631394352    1.1333670894    0.7591984671
N        1.0200201215    0.5754385568    1.6522808714
6    
From optimize.out: Frame 2 / 27, Energy=    -170.1249803090
C       -0.2340506158   -1.1075814043   -0.6446704285
C       -0.6245973822    0.0682105062   -0.3713864714
H       -1.3235472608    0.8592102724   -0.6333190026
H        0.6793172656   -1.6238508039   -0.8438687143
C        0.4730789836    1.1425128536    0.7795977091
N        1.0297990097    0.6614985761    1.7136469078
6    
From optimize.out: Frame 3 / 27, Energy=    -170.1337891499
C       -0.2428442634   -1.1137268595   -0.6961828316
C       -0.6171449709    0.0549692936   -0.3943296731
H       -1.3345920197    0.8228335505   -0.6439609814
H        0.6732890828   -1.6506772736   -0.8412469666
C        0.4693136974    1.1468080717    0.8136729197
N        1.0519784738    0.7397932174    1.7620475331
6    
From optimize.out: Frame 4 / 27, Energy=    -170.1396994500
C       -0.2473344780   -1.1162836345   -0.7590024554
C       -0.6102931484    0.0442552089   -0.4229346953
H       -1.3531292929    0.7883936897   -0.6499420477
H        0.6711052361   -1.6723982525   -0.8197970551
C        0.4589874566    1.1419377695    0.8514014551
N        1.0806642266    0.8140952189    1.8002747985
6    
From optimize.out: Frame 6 / 27, Energy=    -170.1462042541
C       -0.2469352980   -1.1176178722   -0.8290770073
C       -0.6058279803    0.0326033629   -0.4496625750
H       -1.3752460713    0.7565264888   -0.6462380158
H        0.6708919072   -1.6816399096   -0.7858451411
C        0.4492588716    1.1224868973    0.8812581524
N        1.1078585709    0.8876410328    1.8295645867
6    
From optimize.out: Frame 7 / 27, Energy=    -170.1480013979
C       -0.2407707437   -1.1147298282   -0.9007477820
C       -0.6004399952    0.0225675958   -0.4723672584
H       -1.3962509284    0.7261712989   -0.6317568677
H        0.6682553708   -1.6798592014   -0.7442859820
C        0.4386103931    1.0866182274    0.9033714979
N        1.1305959034    0.9592319075    1.8457863923
6    
From optimize.out: Frame 8 / 27, Energy=    -170.1511063637
C       -0.2306215523   -1.1070534426   -0.9672060968
C       -0.5905552817    0.0169963672   -0.4871756903
H       -1.4121324152    0.6997978337   -0.6059769200
H        0.6594936626   -1.6729694325   -0.7060525156
C        0.4286727968    1.0332563850    0.9178125805
N        1.1451427899    1.0299722893    1.8485986421
6    
From optimize.out: Frame 9 / 27, Energy=    -170.1594253167
C       -0.2233178357   -1.0954536466   -1.0199232276
C       -0.5734370980    0.0189064273   -0.4886726603
H       -1.4168775170    0.6831600496   -0.5678420872
H        0.6453463785   -1.6625702309   -0.6797745947
C        0.4238195445    0.9594081649    0.9203329328
N        1.1444665278    1.0965492357    1.8358796370
6    
From optimize.out: Frame 11 / 27, Energy=    -170.1781332600
C       -0.2227479249   -1.0819498891   -1.0588847140
C       -0.5521968236    0.0252323796   -0.4759008138
H       -1.4123366370    0.6753304333   -0.5177387873
H        0.6307812071   -1.6472891852   -0.6660090942
C        0.4298868514    0.8769545239    0.9082469768
N        1.1266133271    1.1517217375    1.8102864324
6    
From optimize.out: Frame 12 / 27, Energy=    -170.1841520092
C       -0.2418011670   -1.0732909969   -1.0236651482
C       -0.5283454874    0.0564120501   -0.4335022433
H       -1.3732387115    0.7268268512   -0.5149601513
H        0.6267633742   -1.6523524516   -0.6778125511
C        0.4094689736    0.8486568812    0.8716503341
N        1.1071530182    1.0937476661    1.7782897598
6    
From optimize.out: Frame 17 / 27, Energy=    -170.1852921058
C       -0.2378586932   -1.0648786233   -1.0207525248
C       -0.5207287657    0.0652144211   -0.4203760803
H       -1.3771528452    0.7224780053   -0.5237439017
H        0.6359829278   -1.5994695995   -0.6266934982
C        0.4005447579    0.8046161450    0.8429508088
N        1.0992126185    1.0720396514    1.7486151962
6    
From optimize.out: Frame 18 / 27, Energy=    -170.1857023179
C       -0.2248890154   -1.0563748284   -1.0322575911
C       -0.5190665729    0.0650179860   -0.4189141139
H       -1.3978718814    0.6957720415   -0.5349374834
H        0.6495857760   -1.5249228577   -0.5519206099
C        0.3967533507    0.7528793165    0.8180129801
N        1.0954883431    1.0676283421    1.7200168182
6    
From optimize.out: Frame 20 / 27, Energy=    -170.1863194340
C       -0.2260671948   -1.0482659797   -1.0142781226
C       -0.5056333135    0.0825554362   -0.3946832975
H       -1.3872882326    0.7083200191   -0.5486376152
H        0.6578594551   -1.4701472106   -0.5021714368
C        0.3779823144    0.7053973204    0.7780838400
N        1.0831469715    1.0221404146    1.6816866321
6    
From optimize.out: Frame 21 / 27, Energy=    -170.1864266436
C       -0.2369498587   -1.0403210517   -0.9961207688
C       -0.4887399385    0.1089422809   -0.3635726128
H       -1.3609690553    0.7520906466   -0.5333617261
H        0.6556986315   -1.4718767069   -0.5043791738
C        0.3612814107    0.6712606509    0.7477420218
N        1.0696788103    0.9799041802    1.6496922598
6    
From optimize.out: Frame 22 / 27, Energy=    -170.1865054932
C       -0.2573853087   -1.0325141037   -0.9821687827
C       -0.4694487755    0.1433158401   -0.3275989993
H       -1.3204137316    0.8275348338   -0.4828553629
H        0.6417850899   -1.5386118775   -0.5653342921
C        0.3493158842    0.6525391101    0.7311796344
N        1.0561468417    0.9477361972    1.6267778027
6    
From optimize.out: Frame 23 / 27, Energy=    -170.1865778731
C       -0.2679152654   -1.0529284767   -0.9704823884
C       -0.4673615887    0.1453811505   -0.3374874432
H       -1.3236991782    0.8124413535   -0.5145145514
H        0.6574908510   -1.4893705658   -0.5276388998
C        0.3487484544    0.6527166808    0.7260145477
N        1.0527367269    0.9317598578    1.6241087351
6    
From optimize.out: Frame 25 / 27, Energy=    -170.1866754199
C       -0.2736869939   -1.0576325210   -0.9685306356
C       -0.4696939079    0.1496680704   -0.3357506374
H       -1.3361581834    0.8049174279   -0.5246839887
H        0.6674008175   -1.4821801306   -0.5254141359
C        0.3625067661    0.6402808664    0.7263341983
N        1.0496315016    0.9449462868    1.6280451994
6    
From optimize.out: Frame 26 / 27, Energy=    -170.1866842214
C       -0.2721093514   -1.0384613412   -0.9953339851
C       -0.4664499151    0.1336943396   -0.3047183847
H       -1.3026916003    0.8069996399   -0.5503882502
H        0.6404231844   -1.5232274125   -0.5526625053
C        0.3524169941    0.6272448825    0.7650856596
N        1.0484106883    0.9937498916    1.6380174657
