6    
Image 0/11, Energy =  -169.0522692293 (+0.278 kcal/mol)
C       -0.3689809232   -1.4576547332   -1.3858823910
C       -0.1536196575   -0.5941379364   -0.5627748996
H        0.0498937432    0.2058682499    0.1931202386
H       -0.5557149982   -2.2230003307   -2.1042277546
C        0.4068909404    1.6172446315    1.5286738868
N        0.6215308952    2.4516801189    2.3310909145
6    
Image 1/11, Energy =  -169.0527118451 (+0.000 kcal/mol)
C       -0.3433671092   -1.4536101118   -1.3568274018
C       -0.2706334500   -0.5213454054   -0.6062032664
H       -0.1467923652    0.2987760298    0.0956752645
H       -0.3895910427   -2.2772557619   -2.0049973684
C        0.3658350446    1.6460078812    1.5030617742
N        0.7845489263    2.3074273661    2.3692909938
6    
Image 2/11, Energy =  -169.0505400513 (+1.363 kcal/mol)
C       -0.3141428715   -1.4382997344   -1.3170327717
C       -0.3852974184   -0.4478708789   -0.6474471395
H       -0.3415306092    0.4079039877    0.0090451148
H       -0.2202002971   -2.3121252972   -1.8857968608
C        0.3340855121    1.6630144871    1.4741769789
N        0.9270856777    2.1273774114    2.3670547175
6    
Image 3/11, Energy =  -169.0471871248 (+3.467 kcal/mol)
C       -0.2817671380   -1.4057025123   -1.2624489371
C       -0.4942475913   -0.3777386896   -0.6882059789
H       -0.5385396174    0.5096436714   -0.0856781985
H       -0.0509023683   -2.3093993839   -1.7370432374
C        0.3251794637    1.6537601569    1.4453674587
N        1.0402773041    1.9294367145    2.3280089180
6    
Image 4/11, Energy =  -169.0425781711 (+6.359 kcal/mol)
C       -0.2474116695   -1.3542671541   -1.1940159426
C       -0.5956927774   -0.3107645149   -0.7262222039
H       -0.7405758488    0.6009068474   -0.1928313826
H        0.1161619755   -2.2651195692   -1.5579481136
C        0.3400089763    1.6034137967    1.4073736079
N        1.1275093853    1.7258305710    2.2636440536
6    
Image 5/11, Energy =  -169.0365700196 (+10.129 kcal/mol)
C       -0.2150875294   -1.2845083390   -1.1150000645
C       -0.6815044138   -0.2457942596   -0.7543517470
H       -0.9413121112    0.6790854762   -0.3108747463
H        0.2748154492   -2.1770332594   -1.3527303290
C        0.3709170671    1.4996621847    1.3495646636
N        1.1921715524    1.5285881449    2.1833922229
6    
Image 6/11, Energy =  -169.0279843736 (+15.517 kcal/mol)
C       -0.1958465263   -1.2054939636   -1.0399238993
C       -0.7324071675   -0.1784535042   -0.7520571048
H       -1.1245572088    0.7393863481   -0.4274347562
H        0.4148664559   -2.0476738592   -1.1365323519
C        0.4083645242    1.3323329047    1.2614219783
N        1.2295799643    1.3599020541    2.0945261091
6    
Image 7/11, Energy =  -169.0120414948 (+25.521 kcal/mol)
C       -0.2100403212   -1.1423421928   -1.0045573799
C       -0.7109652320   -0.0973861179   -0.6806437168
H       -1.2616310597    0.7736038935   -0.5236736155
H        0.5174112657   -1.8921362244   -0.9349631638
C        0.4411942493    1.1151096676    1.1435162887
N        1.2240310774    1.2431509756    2.0003215738
6    
Image 8/11, Energy =  -168.9962095846 (+35.456 kcal/mol)
C       -0.2521018949   -1.1071225914   -1.0124981785
C       -0.6147168895    0.0007658408   -0.5348183670
H       -1.3285271524    0.7771608146   -0.5801567446
H        0.5733087499   -1.7452329057   -0.7799527776
C        0.4535631422    0.9029205674    1.0129934483
N        1.1684740150    1.1715082933    1.8944325850
6    
Image 9/11, Energy =  -169.0185481864 (+21.438 kcal/mol)
C       -0.2719625516   -1.0757314587   -1.0098528780
C       -0.5069210254    0.0856166830   -0.3812102048
H       -1.3135117481    0.7752545292   -0.5708749214
H        0.5941009964   -1.6771003016   -0.7120056808
C        0.4053047108    0.7756581993    0.8955912835
N        1.0929895856    1.1163023882    1.7783524219
6    
Image 10/11, Energy =  -169.0437609545 (+5.617 kcal/mol)
C       -0.2721093513   -1.0384613434   -0.9953339881
C       -0.4664498990    0.1336943575   -0.3047184047
H       -1.3026915424    0.8069996864   -0.5503883163
H        0.6404231461   -1.5232274468   -0.5526624607
C        0.3524169885    0.6272448767    0.7650856657
N        1.0484106581    0.9937498643    1.6380174988
