6    
Image 0/11, Energy =  -169.0522692293 (+0.362 kcal/mol)
C       -0.3689809232   -1.4576547332   -1.3858823910
C       -0.1536196575   -0.5941379364   -0.5627748996
H        0.0498937432    0.2058682499    0.1931202386
H       -0.5557149982   -2.2230003307   -2.1042277546
C        0.4068909404    1.6172446315    1.5286738868
N        0.6215308952    2.4516801189    2.3310909145
6    
Image 1/11, Energy =  -169.0528465801 (+0.000 kcal/mol)
C       -0.3431548356   -1.4584410231   -1.3578338175
C       -0.2655145036   -0.5233007582   -0.6114723202
H       -0.1473749761    0.2999109696    0.0860421077
H       -0.3939867340   -2.2842083639   -2.0041599197
C        0.3476434748    1.6663702536    1.5089427844
N        0.8023877312    2.2996688761    2.3784811063
6    
Image 2/11, Energy =  -169.0506302261 (+1.391 kcal/mol)
C       -0.3118590727   -1.4411940524   -1.3156985058
C       -0.3778894307   -0.4443370995   -0.6544303447
H       -0.3445987315    0.4182580365   -0.0053629180
H       -0.2238528134   -2.3230652497   -1.8764042837
C        0.3017664511    1.6942311489    1.4856483163
N        0.9564336257    2.0961071851    2.3662476543
6    
Image 3/11, Energy =  -169.0472472042 (+3.514 kcal/mol)
C       -0.2773108884   -1.4049629735   -1.2578894951
C       -0.4868390537   -0.3688006022   -0.6956152893
H       -0.5459426886    0.5258716834   -0.1043903653
H       -0.0507024844   -2.3192052037   -1.7183878006
C        0.2846673611    1.6933870018    1.4670549940
N        1.0761277209    1.8737099477    2.3092279495
6    
Image 4/11, Energy =  -169.0427181186 (+6.356 kcal/mol)
C       -0.2399346680   -1.3503693571   -1.1857269290
C       -0.5911919222   -0.2979555171   -0.7383835424
H       -0.7574994303    0.6207324981   -0.2232019662
H        0.1217975897   -2.2723294300   -1.5287566521
C        0.2972174991    1.6504282176    1.4477572220
N        1.1696108869    1.6494935175    2.2283119838
6    
Image 5/11, Energy =  -169.0371185150 (+9.870 kcal/mol)
C       -0.2046155967   -1.2776186396   -1.1018376968
C       -0.6842391865   -0.2332259476   -0.7744323550
H       -0.9691381364    0.6968547654   -0.3561685971
H        0.2844627071   -2.1789931363   -1.3161144559
C        0.3351046641    1.5474036719    1.4049424775
N        1.2384254878    1.4455794738    2.1436109938
6    
Image 6/11, Energy =  -169.0293720378 (+14.730 kcal/mol)
C       -0.1846945825   -1.1929295960   -1.0209645313
C       -0.7483886716   -0.1679554537   -0.7804759734
H       -1.1518652670    0.7541024215   -0.4737718579
H        0.4284877231   -2.0387969517   -1.0900724753
C        0.3830018492    1.3682537524    1.3049265981
N        1.2734590418    1.2773259731    2.0603583203
6    
Image 7/11, Energy =  -169.0135215370 (+24.677 kcal/mol)
C       -0.2009274010   -1.1294415379   -0.9878190141
C       -0.7295786895   -0.0878453965   -0.7063603095
H       -1.2800176870    0.7879522742   -0.5621772423
H        0.5280863236   -1.8754728069   -0.8860442945
C        0.4236773860    1.1249902265    1.1634529912
N        1.2587602218    1.1798173937    1.9789479238
6    
Image 8/11, Energy =  -168.9961773961 (+35.560 kcal/mol)
C       -0.2504070377   -1.1026244992   -1.0116449811
C       -0.6169746796    0.0073782755   -0.5403122512
H       -1.3248945967    0.7883305541   -0.6013568624
H        0.5686226168   -1.7399189999   -0.7533989468
C        0.4404999554    0.9005091159    1.0207432646
N        1.1831538355    1.1463256779    1.8859699178
6    
Image 9/11, Energy =  -169.0167555696 (+22.647 kcal/mol)
C       -0.2705565277   -1.0735666805   -1.0106179590
C       -0.5088427153    0.0878779469   -0.3873250850
H       -1.3085991496    0.7818402251   -0.5896811519
H        0.5834277966   -1.6879070344   -0.7048363604
C        0.4009587418    0.7806841154    0.9089286423
N        1.1036119290    1.1110715387    1.7835320450
6    
Image 10/11, Energy =  -169.0437609544 (+5.701 kcal/mol)
C       -0.2721093513   -1.0384613434   -0.9953339881
C       -0.4664498990    0.1336943575   -0.3047184047
H       -1.3026915424    0.8069996864   -0.5503883163
H        0.6404231461   -1.5232274468   -0.5526624607
C        0.3524169885    0.6272448767    0.7650856657
N        1.0484106581    0.9937498643    1.6380174988
