6    
Image 0/11, Energy =  -169.0522692293 (+0.236 kcal/mol)
C       -0.3689809232   -1.4576547332   -1.3858823910
C       -0.1536196575   -0.5941379364   -0.5627748996
H        0.0498937432    0.2058682499    0.1931202386
H       -0.5557149982   -2.2230003307   -2.1042277546
C        0.4068909404    1.6172446315    1.5286738868
N        0.6215308952    2.4516801189    2.3310909145
6    
Image 1/11, Energy =  -169.0526454306 (+0.000 kcal/mol)
C       -0.3422944915   -1.4526303348   -1.3549564830
C       -0.2703151752   -0.5185873480   -0.6069313455
H       -0.1485637232    0.3026779725    0.0944722853
H       -0.3880841439   -2.2781073099   -2.0009338289
C        0.3616577716    1.6466588731    1.5000671699
N        0.7875997508    2.2999881136    2.3682821970
6    
Image 2/11, Energy =  -169.0503766571 (+1.424 kcal/mol)
C       -0.3124172448   -1.4351314397   -1.3141876418
C       -0.3859793728   -0.4422929838   -0.6490095402
H       -0.3461422202    0.4152303281    0.0057886639
H       -0.2159285864   -2.3128817782   -1.8763868487
C        0.3285750900    1.6610387553    1.4708405079
N        0.9318923760    2.1140371093    2.3629548492
6    
Image 3/11, Energy =  -169.0468987385 (+3.606 kcal/mol)
C       -0.2789268006   -1.4003350956   -1.2586729067
C       -0.4969419989   -0.3704492306   -0.6895854126
H       -0.5463331836    0.5199036461   -0.0919988766
H       -0.0435359623   -2.3084031739   -1.7222492895
C        0.3190711418    1.6495979320    1.4428210047
N        1.0466668390    1.9096858763    2.3196855595
6    
Image 4/11, Energy =  -169.0422189417 (+6.543 kcal/mol)
C       -0.2442195148   -1.3482321515   -1.1885220800
C       -0.5987089852   -0.3033896334   -0.7278172559
H       -0.7493108816    0.6111778623   -0.2011694744
H        0.1247092064   -2.2612754926   -1.5416005742
C        0.3326819876    1.5962952691    1.4070274692
N        1.1348482131    1.7054241027    2.2520819420
6    
Image 5/11, Energy =  -169.0362621709 (+10.281 kcal/mol)
C       -0.2128420203   -1.2801552684   -1.1096909793
C       -0.6832333080   -0.2407188089   -0.7557983755
H       -0.9479387608    0.6854318979   -0.3178289367
H        0.2815439765   -2.1719594786   -1.3415422533
C        0.3640777199    1.4907251635    1.3521318327
N        1.1983924560    1.5166764796    2.1727287112
6    
Image 6/11, Energy =  -169.0278617962 (+15.552 kcal/mol)
C       -0.1956191443   -1.2032494661   -1.0384712055
C       -0.7334452851   -0.1756008128   -0.7550308351
H       -1.1287120124    0.7420788153   -0.4333392406
H        0.4184117910   -2.0438811707   -1.1285254279
C        0.4036248004    1.3270520390    1.2663600164
N        1.2357398688    1.3536005849    2.0890066749
6    
Image 7/11, Energy =  -169.0120238284 (+25.490 kcal/mol)
C       -0.2107237551   -1.1415534460   -1.0053973167
C       -0.7115810660   -0.0956759310   -0.6837808117
H       -1.2643602533    0.7741283917   -0.5267006379
H        0.5192881743   -1.8884700725   -0.9277727466
C        0.4394610926    1.1138577390    1.1454199444
N        1.2279158064    1.2377132693    1.9982314938
6    
Image 8/11, Energy =  -168.9962095846 (+35.414 kcal/mol)
C       -0.2521018949   -1.1071225914   -1.0124981785
C       -0.6147168895    0.0007658408   -0.5348183670
H       -1.3285271524    0.7771608146   -0.5801567446
H        0.5733087499   -1.7452329057   -0.7799527776
C        0.4535631422    0.9029205674    1.0129934483
N        1.1684740150    1.1715082933    1.8944325850
6    
Image 9/11, Energy =  -169.0185481864 (+21.396 kcal/mol)
C       -0.2719625516   -1.0757314587   -1.0098528780
C       -0.5069210254    0.0856166830   -0.3812102048
H       -1.3135117481    0.7752545292   -0.5708749214
H        0.5941009964   -1.6771003016   -0.7120056808
C        0.4053047108    0.7756581993    0.8955912835
N        1.0929895856    1.1163023882    1.7783524219
6    
Image 10/11, Energy =  -169.0437609545 (+5.575 kcal/mol)
C       -0.2721093513   -1.0384613434   -0.9953339881
C       -0.4664498990    0.1336943575   -0.3047184047
H       -1.3026915424    0.8069996864   -0.5503883163
H        0.6404231461   -1.5232274468   -0.5526624607
C        0.3524169885    0.6272448767    0.7650856657
N        1.0484106581    0.9937498643    1.6380174988
