6    
Image 0/11, Energy =  -169.0522692293 (+0.375 kcal/mol)
C       -0.3689809232   -1.4576547332   -1.3858823910
C       -0.1536196575   -0.5941379364   -0.5627748996
H        0.0498937432    0.2058682499    0.1931202386
H       -0.5557149982   -2.2230003307   -2.1042277546
C        0.4068909404    1.6172446315    1.5286738868
N        0.6215308952    2.4516801189    2.3310909145
6    
Image 1/11, Energy =  -169.0528661679 (+0.000 kcal/mol)
C       -0.3434188015   -1.4587215829   -1.3583658249
C       -0.2651769357   -0.5241820277   -0.6113059372
H       -0.1467035392    0.2985430334    0.0866619085
H       -0.3947332671   -2.2838495946   -2.0054945429
C        0.3484794710    1.6665664809    1.5096973718
N        0.8015532149    2.3016436473    2.3788069731
6    
Image 2/11, Energy =  -169.0506815056 (+1.371 kcal/mol)
C       -0.3123951619   -1.4418770122   -1.3166572282
C       -0.3767200061   -0.4461536692   -0.6535764490
H       -0.3421508821    0.4157834562   -0.0036695807
H       -0.2259739822   -2.3226347910   -1.8793995829
C        0.3026937935    1.6949407486    1.4860093364
N        0.9545462620    2.0999412484    2.3672934107
6    
Image 3/11, Energy =  -169.0473251403 (+3.477 kcal/mol)
C       -0.2780879442   -1.4059784598   -1.2591291992
C       -0.4852339341   -0.3707127353   -0.6942548275
H       -0.5424073289    0.5232965344   -0.1016350202
H       -0.0533756951   -2.3193289436   -1.7222697702
C        0.2853733696    1.6945442701    1.4664917768
N        1.0737315174    1.8781791882    2.3107970319
6    
Image 4/11, Energy =  -169.0428024311 (+6.315 kcal/mol)
C       -0.2405726518   -1.3515188748   -1.1868192731
C       -0.5898826831   -0.2993535043   -0.7371457929
H       -0.7536891913    0.6188510411   -0.2197979183
H        0.1194542640   -2.2731919863   -1.5324498471
C        0.2973787176    1.6519763964    1.4465134503
N        1.1673115169    1.6532368357    2.2296994640
6    
Image 5/11, Energy =  -169.0372893563 (+9.775 kcal/mol)
C       -0.2059110181   -1.2801151013   -1.1049955759
C       -0.6820442137   -0.2355500310   -0.7727201323
H       -0.9619126446    0.6941906029   -0.3493905600
H        0.2804552477   -2.1821647258   -1.3228878324
C        0.3340614124    1.5506457412    1.4041692584
N        1.2353511743    1.4529936306    2.1458251027
6    
Image 6/11, Energy =  -169.0295189693 (+14.651 kcal/mol)
C       -0.1853089649   -1.1950541909   -1.0229271452
C       -0.7471661694   -0.1696869117   -0.7795755468
H       -1.1477297134    0.7527238444   -0.4698315046
H        0.4258345177   -2.0420601802   -1.0955308752
C        0.3826729466    1.3715966586    1.3052393866
N        1.2716974818    1.2824808898    2.0626257416
6    
Image 7/11, Energy =  -169.0137118304 (+24.570 kcal/mol)
C       -0.2010606621   -1.1304295466   -0.9888379998
C       -0.7295367975   -0.0889933181   -0.7070973696
H       -1.2783948498    0.7873864984   -0.5606234783
H        0.5268419207   -1.8776527066   -0.8887248061
C        0.4234055477    1.1274229620    1.1650004604
N        1.2587449866    1.1822662284    1.9802832424
6    
Image 8/11, Energy =  -168.9961773961 (+35.573 kcal/mol)
C       -0.2504070377   -1.1026244992   -1.0116449811
C       -0.6169746796    0.0073782755   -0.5403122512
H       -1.3248945967    0.7883305541   -0.6013568624
H        0.5686226168   -1.7399189999   -0.7533989468
C        0.4404999554    0.9005091159    1.0207432646
N        1.1831538355    1.1463256779    1.8859699178
6    
Image 9/11, Energy =  -169.0167555696 (+22.660 kcal/mol)
C       -0.2705565277   -1.0735666805   -1.0106179590
C       -0.5088427153    0.0878779469   -0.3873250850
H       -1.3085991496    0.7818402251   -0.5896811519
H        0.5834277966   -1.6879070344   -0.7048363604
C        0.4009587418    0.7806841154    0.9089286423
N        1.1036119290    1.1110715387    1.7835320450
6    
Image 10/11, Energy =  -169.0437609544 (+5.714 kcal/mol)
C       -0.2721093513   -1.0384613434   -0.9953339881
C       -0.4664498990    0.1336943575   -0.3047184047
H       -1.3026915424    0.8069996864   -0.5503883163
H        0.6404231461   -1.5232274468   -0.5526624607
C        0.3524169885    0.6272448767    0.7650856657
N        1.0484106581    0.9937498643    1.6380174988
