6    
Image 0/11, Energy =  -169.0522692293 (+0.398 kcal/mol)
C       -0.3689809232   -1.4576547332   -1.3858823910
C       -0.1536196575   -0.5941379364   -0.5627748996
H        0.0498937432    0.2058682499    0.1931202386
H       -0.5557149982   -2.2230003307   -2.1042277546
C        0.4068909404    1.6172446315    1.5286738868
N        0.6215308952    2.4516801189    2.3310909145
6    
Image 1/11, Energy =  -169.0529040484 (+0.000 kcal/mol)
C       -0.3438322682   -1.4592285763   -1.3595202280
C       -0.2646686643   -0.5258592831   -0.6110802253
H       -0.1456154271    0.2959872088    0.0878710493
H       -0.3961408368   -2.2833084780   -2.0080645447
C        0.3502944708    1.6668569999    1.5113124002
N        0.7999628341    2.3055520962    2.3794815131
6    
Image 2/11, Energy =  -169.0507406629 (+1.358 kcal/mol)
C       -0.3130595662   -1.4426550821   -1.3179226662
C       -0.3754577345   -0.4482831077   -0.6526406507
H       -0.3396422083    0.4128095154   -0.0016987100
H       -0.2282916960   -2.3221378183   -1.8829138772
C        0.3040257333    1.6956887001    1.4866029786
N        0.9524255021    2.1045777722    2.3685728261
6    
Image 3/11, Energy =  -169.0473947007 (+3.457 kcal/mol)
C       -0.2788638446   -1.4068712761   -1.2602117432
C       -0.4837233436   -0.3724188762   -0.6930467411
H       -0.5391664303    0.5209927105   -0.0991597114
H       -0.0557527361   -2.3194267736   -1.7256968890
C        0.2859104830    1.6957300293    1.4659642640
N        1.0715958672    1.8819940496    2.3121508124
6    
Image 4/11, Energy =  -169.0429502272 (+6.246 kcal/mol)
C       -0.2420223190   -1.3535029782   -1.1888591439
C       -0.5873798221   -0.3020966384   -0.7343336740
H       -0.7466457990    0.6153940783   -0.2136237510
H        0.1152357394   -2.2744089452   -1.5392989672
C        0.2979142769    1.6541995745    1.4436125590
N        1.1628979404    1.6604148329    2.2325030350
6    
Image 5/11, Energy =  -169.0374113127 (+9.722 kcal/mol)
C       -0.2072297361   -1.2821706701   -1.1071666067
C       -0.6802957091   -0.2376303163   -0.7703770647
H       -0.9556790474    0.6919554802   -0.3432169904
H        0.2774171875   -2.1842088696   -1.3287316928
C        0.3341502740    1.5530877563    1.4014876089
N        1.2316370325    1.4589666740    2.1480048904
6    
Image 6/11, Energy =  -169.0296833903 (+14.571 kcal/mol)
C       -0.1858759157   -1.1974034999   -1.0248986928
C       -0.7457089138   -0.1716445164   -0.7784505654
H       -1.1432455826    0.7511165107   -0.4655872852
H        0.4227626343   -2.0457381212   -1.1018644841
C        0.3824314946    1.3752800241    1.3055839325
N        1.2696363820    1.2883896683    2.0652171249
6    
Image 7/11, Energy =  -169.0138365084 (+24.515 kcal/mol)
C       -0.2011695127   -1.1310690737   -0.9896262988
C       -0.7294796490   -0.0897190987   -0.7076620265
H       -1.2774211070    0.7869050767   -0.5596835261
H        0.5259868373   -1.8789853425   -0.8903377138
C        0.4232554520    1.1289975541    1.1661168135
N        1.2588281210    1.1838709881    1.9811927992
6    
Image 8/11, Energy =  -168.9961773961 (+35.597 kcal/mol)
C       -0.2504070377   -1.1026244992   -1.0116449811
C       -0.6169746796    0.0073782755   -0.5403122512
H       -1.3248945967    0.7883305541   -0.6013568624
H        0.5686226168   -1.7399189999   -0.7533989468
C        0.4404999554    0.9005091159    1.0207432646
N        1.1831538355    1.1463256779    1.8859699178
6    
Image 9/11, Energy =  -169.0167555696 (+22.684 kcal/mol)
C       -0.2705565277   -1.0735666805   -1.0106179590
C       -0.5088427153    0.0878779469   -0.3873250850
H       -1.3085991496    0.7818402251   -0.5896811519
H        0.5834277966   -1.6879070344   -0.7048363604
C        0.4009587418    0.7806841154    0.9089286423
N        1.1036119290    1.1110715387    1.7835320450
6    
Image 10/11, Energy =  -169.0437609544 (+5.737 kcal/mol)
C       -0.2721093513   -1.0384613434   -0.9953339881
C       -0.4664498990    0.1336943575   -0.3047184047
H       -1.3026915424    0.8069996864   -0.5503883163
H        0.6404231461   -1.5232274468   -0.5526624607
C        0.3524169885    0.6272448767    0.7650856657
N        1.0484106581    0.9937498643    1.6380174988
