6    
Image 0/11, Energy =  -169.0522692293 (+0.326 kcal/mol)
C       -0.3689809232   -1.4576547332   -1.3858823910
C       -0.1536196575   -0.5941379364   -0.5627748996
H        0.0498937432    0.2058682499    0.1931202386
H       -0.5557149982   -2.2230003307   -2.1042277546
C        0.4068909404    1.6172446315    1.5286738868
N        0.6215308952    2.4516801189    2.3310909145
6    
Image 1/11, Energy =  -169.0527887221 (+0.000 kcal/mol)
C       -0.3464413165   -1.4546626491   -1.3606257520
C       -0.2718368228   -0.5245555902   -0.6061283250
H       -0.1453687419    0.2904944447    0.1005583256
H       -0.3906409795   -2.2753877549   -2.0122216308
C        0.3774353723    1.6405104136    1.5107176556
N        0.7768525085    2.3236011372    2.3676997409
6    
Image 2/11, Energy =  -169.0507180762 (+1.299 kcal/mol)
C       -0.3196858771   -1.4400540032   -1.3258639924
C       -0.3874067355   -0.4563634243   -0.6475371314
H       -0.3378953577    0.3930953243    0.0172320930
H       -0.2239268114   -2.3107159221   -1.9002933011
C        0.3547495413    1.6502966215    1.4840691792
N        0.9141652701    2.1637414326    2.3723931341
6    
Image 3/11, Energy =  -169.0474574052 (+3.345 kcal/mol)
C       -0.2886272638   -1.4103904122   -1.2764207879
C       -0.4961889833   -0.3904009061   -0.6855351414
H       -0.5314423707    0.4917037605   -0.0742928486
H       -0.0581936354   -2.3103990108   -1.7586335298
C        0.3490511013    1.6402729557    1.4512595873
N        1.0254011392    1.9792136371    2.3436227428
6    
Image 4/11, Energy =  -169.0430478105 (+6.113 kcal/mol)
C       -0.2560650932   -1.3639857707   -1.2103295701
C       -0.5944934588   -0.3262881030   -0.7216803538
H       -0.7261467538    0.5818983572   -0.1773258824
H        0.1038050750   -2.2712467452   -1.5879148075
C        0.3616073424    1.5984311469    1.4087851481
N        1.1112928517    1.7811910786    2.2884654751
6    
Image 5/11, Energy =  -169.0372385167 (+9.758 kcal/mol)
C       -0.2255915245   -1.2986061061   -1.1316488597
C       -0.6787167285   -0.2620313530   -0.7497171004
H       -0.9232407937    0.6614288400   -0.2925702759
H        0.2611477848   -2.1883595156   -1.3870407259
C        0.3904413974    1.5087393819    1.3472522038
N        1.1759598775    1.5788287086    2.2137247618
6    
Image 6/11, Energy =  -169.0287402229 (+15.091 kcal/mol)
C       -0.2055286304   -1.2178820552   -1.0529626071
C       -0.7327150028   -0.1899226165   -0.7516707946
H       -1.1135119900    0.7283823211   -0.4144297104
H        0.4076675389   -2.0570762670   -1.1564709993
C        0.4270882675    1.3547081614    1.2558498432
N        1.2169997925    1.3817904065    2.1196842810
6    
Image 7/11, Energy =  -169.0123194881 (+25.395 kcal/mol)
C       -0.2157073321   -1.1471426823   -1.0078935307
C       -0.7124332884   -0.1004146761   -0.6828008821
H       -1.2624725797    0.7693620224   -0.5193340495
H        0.5201552389   -1.8879583403   -0.9306116278
C        0.4530515561    1.1343046594    1.1311727241
N        1.2174064303    1.2318490224    2.0094673670
6    
Image 8/11, Energy =  -168.9961668930 (+35.531 kcal/mol)
C       -0.2539519788   -1.1081598406   -1.0112561445
C       -0.6124548593    0.0039683953   -0.5335632654
H       -1.3314876748    0.7756068235   -0.5792311091
H        0.5775136457   -1.7367870737   -0.7702566798
C        0.4542628228    0.9107616770    1.0023738214
N        1.1661180588    1.1546100403    1.8919333896
6    
Image 9/11, Energy =  -169.0201898038 (+20.456 kcal/mol)
C       -0.2721669263   -1.0746364905   -1.0073883373
C       -0.5026754027    0.0910273929   -0.3775647853
H       -1.3152634625    0.7746645653   -0.5704717703
H        0.5970457618   -1.6726315567   -0.7046992381
C        0.4034946653    0.7756810792    0.8854258063
N        1.0895653981    1.1058950292    1.7746983248
6    
Image 10/11, Energy =  -169.0437609545 (+5.665 kcal/mol)
C       -0.2721093513   -1.0384613434   -0.9953339881
C       -0.4664498990    0.1336943575   -0.3047184047
H       -1.3026915424    0.8069996864   -0.5503883163
H        0.6404231461   -1.5232274468   -0.5526624607
C        0.3524169885    0.6272448767    0.7650856657
N        1.0484106581    0.9937498643    1.6380174988
