6    
Image 0/11, Energy =  -169.0522692293 (+0.292 kcal/mol)
C       -0.3689809232   -1.4576547332   -1.3858823910
C       -0.1536196575   -0.5941379364   -0.5627748996
H        0.0498937432    0.2058682499    0.1931202386
H       -0.5557149982   -2.2230003307   -2.1042277546
C        0.4068909404    1.6172446315    1.5286738868
N        0.6215308952    2.4516801189    2.3310909145
6    
Image 1/11, Energy =  -169.0527348694 (+0.000 kcal/mol)
C       -0.3442100106   -1.4537776772   -1.3573633995
C       -0.2706869137   -0.5226927438   -0.6064290047
H       -0.1462790147    0.2969688906    0.0967818129
H       -0.3900150456   -2.2769174072   -2.0070984237
C        0.3684858692    1.6452564180    1.5049516619
N        0.7827051250    2.3111625250    2.3691573438
6    
Image 2/11, Energy =  -169.0505817247 (+1.351 kcal/mol)
C       -0.3152551101   -1.4390154005   -1.3181047337
C       -0.3852042779   -0.4494068710   -0.6476957625
H       -0.3407171346    0.4054625035    0.0106692305
H       -0.2209816646   -2.3120657942   -1.8887485443
C        0.3371244005    1.6622363180    1.4758410329
N        0.9250337736    2.1327892174    2.3680388182
6    
Image 3/11, Energy =  -169.0472608374 (+3.435 kcal/mol)
C       -0.2831686701   -1.4074827865   -1.2639898648
C       -0.4937878195   -0.3797665796   -0.6883295901
H       -0.5368040967    0.5059556617   -0.0832367658
H       -0.0526728435   -2.3095054766   -1.7418196503
C        0.3286214854    1.6529113838    1.4463712561
N        1.0378119882    1.9378877601    2.3310046313
6    
Image 4/11, Energy =  -169.0426857691 (+6.306 kcal/mol)
C       -0.2488400809   -1.3565105991   -1.1965542252
C       -0.5950682170   -0.3134221995   -0.7256303358
H       -0.7376047039    0.5969270547   -0.1897963279
H        0.1134204568   -2.2661470195   -1.5638071477
C        0.3431910051    1.6039442879    1.4072867185
N        1.1249015779    1.7352084492    2.2685013330
6    
Image 5/11, Energy =  -169.0366898137 (+10.068 kcal/mol)
C       -0.2165722406   -1.2867164137   -1.1180132483
C       -0.6811943657   -0.2481891204   -0.7536741922
H       -0.9385074865    0.6762915845   -0.3081014664
H        0.2724632134   -2.1790059897   -1.3576074042
C        0.3743708514    1.5022882748    1.3492713102
N        1.1894400321    1.5353316026    2.1881250050
6    
Image 6/11, Energy =  -169.0280602353 (+15.484 kcal/mol)
C       -0.1972112015   -1.2071770628   -1.0419492256
C       -0.7319154673   -0.1799448418   -0.7513085603
H       -1.1230368152    0.7378643472   -0.4251907323
H        0.4137415210   -2.0490888158   -1.1393534428
C        0.4107602881    1.3355076582    1.2595351588
N        1.2276617247    1.3628386797    2.0982667723
6    
Image 7/11, Energy =  -169.0120637857 (+25.521 kcal/mol)
C       -0.2104106404   -1.1429877618   -1.0045785885
C       -0.7106252510   -0.0981164615   -0.6799057924
H       -1.2608464691    0.7731930675   -0.5220792503
H        0.5172699193   -1.8928783993   -0.9365232511
C        0.4422397968    1.1175825747    1.1413996068
N        1.2223726318    1.2432070055    2.0016872855
6    
Image 8/11, Energy =  -168.9962095846 (+35.470 kcal/mol)
C       -0.2521018949   -1.1071225914   -1.0124981785
C       -0.6147168895    0.0007658408   -0.5348183670
H       -1.3285271524    0.7771608146   -0.5801567446
H        0.5733087499   -1.7452329057   -0.7799527776
C        0.4535631422    0.9029205674    1.0129934483
N        1.1684740150    1.1715082933    1.8944325850
6    
Image 9/11, Energy =  -169.0185481864 (+21.452 kcal/mol)
C       -0.2719625516   -1.0757314587   -1.0098528780
C       -0.5069210254    0.0856166830   -0.3812102048
H       -1.3135117481    0.7752545292   -0.5708749214
H        0.5941009964   -1.6771003016   -0.7120056808
C        0.4053047108    0.7756581993    0.8955912835
N        1.0929895856    1.1163023882    1.7783524219
6    
Image 10/11, Energy =  -169.0437609545 (+5.631 kcal/mol)
C       -0.2721093513   -1.0384613434   -0.9953339881
C       -0.4664498990    0.1336943575   -0.3047184047
H       -1.3026915424    0.8069996864   -0.5503883163
H        0.6404231461   -1.5232274468   -0.5526624607
C        0.3524169885    0.6272448767    0.7650856657
N        1.0484106581    0.9937498643    1.6380174988
