6    
Image 0/11, Energy =  -169.0522692293 (+0.000 kcal/mol)
C       -0.3689809232   -1.4576547332   -1.3858823910
C       -0.1536196575   -0.5941379364   -0.5627748996
H        0.0498937432    0.2058682499    0.1931202386
H       -0.5557149982   -2.2230003307   -2.1042277546
C        0.4068909404    1.6172446315    1.5286738868
N        0.6215308952    2.4516801189    2.3310909145
6    
Image 1/11, Energy =  -169.0520698968 (+0.125 kcal/mol)
C       -0.3557601600   -1.4502556603   -1.3570437594
C       -0.2671890820   -0.5165626081   -0.6144179191
H       -0.1379096061    0.2697407910    0.1216078546
H       -0.4016902788   -2.2623965438   -2.0276112034
C        0.4445793839    1.5744555499    1.5451718034
N        0.7179697834    2.3850184764    2.3322932381
6    
Image 2/11, Energy =  -169.0490949636 (+1.992 kcal/mol)
C       -0.3378560605   -1.4367464068   -1.3280133367
C       -0.3848161168   -0.4503974075   -0.6509409991
H       -0.3198997370    0.3544897487    0.0608583930
H       -0.2429834521   -2.2854567088   -1.9380073425
C        0.4744019773    1.5175678654    1.5303052492
N        0.8111534032    2.3005429053    2.3257980505
6    
Image 3/11, Energy =  -169.0450926973 (+4.503 kcal/mol)
C       -0.3003320025   -1.4077246367   -1.2793811136
C       -0.5019967269   -0.3936970937   -0.6819668538
H       -0.5163564790    0.4564508494   -0.0367385334
H       -0.0823406538   -2.2854452780   -1.8097959711
C        0.4850718726    1.4659193782    1.4894200728
N        0.9159540181    2.1644967607    2.3184623928
6    
Image 4/11, Energy =  -169.0402470657 (+7.544 kcal/mol)
C       -0.2512517746   -1.3627635711   -1.2137067662
C       -0.6117284564   -0.3336458232   -0.7175729487
H       -0.7293891898    0.5462112080   -0.1434978734
H        0.0787274525   -2.2573344646   -1.6480213409
C        0.4923475746    1.4301752030    1.4219365292
N        1.0212944024    1.9773574366    2.3008623695
6    
Image 5/11, Energy =  -169.0350175954 (+10.826 kcal/mol)
C       -0.2114089965   -1.2958390451   -1.1275804518
C       -0.6895300274   -0.2796358702   -0.7407763663
H       -0.9346833564    0.6386743559   -0.2657573499
H        0.2350363260   -2.1936534007   -1.4527143961
C        0.4874871490    1.3984251987    1.3318612646
N        1.1130988929    1.7320287461    2.2549672912
6    
Image 6/11, Energy =  -169.0288954867 (+14.667 kcal/mol)
C       -0.1853693043   -1.2249056871   -1.0368259117
C       -0.7382339411   -0.2129793618   -0.7287226027
H       -1.1117065104    0.7150586491   -0.3919407219
H        0.3814415350   -2.0865943028   -1.2379138461
C        0.4850291605    1.3425938760    1.2291069160
N        1.1688390631    1.4668268107    2.1662961524
6    
Image 7/11, Energy =  -169.0168894881 (+22.201 kcal/mol)
C       -0.1872529991   -1.1570938161   -0.9659992729
C       -0.7311067060   -0.1220330886   -0.6735952142
H       -1.2446512398    0.7691909640   -0.4972931055
H        0.5059947830   -1.9398027458   -1.0081305213
C        0.4777010223    1.2292369930    1.1067023304
N        1.1793151148    1.2205016901    2.0383157682
6    
Image 8/11, Energy =  -168.9964454985 (+35.030 kcal/mol)
C       -0.2305977335   -1.1077974572   -0.9617006755
C       -0.6280441988   -0.0163592993   -0.5445999825
H       -1.3132446951    0.7848631299   -0.5634473130
H        0.5724752783   -1.7947605330   -0.8249591448
C        0.4514754445    1.0377200021    0.9808469644
N        1.1479359274    1.0963341452    1.9138601511
6    
Image 9/11, Energy =  -169.0178229594 (+21.615 kcal/mol)
C       -0.2653709856   -1.0729979444   -0.9804127155
C       -0.4938167854    0.0964303453   -0.3676213592
H       -1.3054586877    0.7626549937   -0.5609366038
H        0.5869498171   -1.6984912710   -0.7436607885
C        0.4024008510    0.8316903275    0.8665413073
N        1.0752958090    1.0807135420    1.7860901518
6    
Image 10/11, Energy =  -169.0437609545 (+5.339 kcal/mol)
C       -0.2721093513   -1.0384613434   -0.9953339881
C       -0.4664498990    0.1336943575   -0.3047184047
H       -1.3026915424    0.8069996864   -0.5503883163
H        0.6404231461   -1.5232274468   -0.5526624607
C        0.3524169885    0.6272448767    0.7650856657
N        1.0484106581    0.9937498643    1.6380174988
