6    
Image 0/11, Energy =  -169.0522692293 (+0.160 kcal/mol)
C       -0.3689809232   -1.4576547332   -1.3858823910
C       -0.1536196575   -0.5941379364   -0.5627748996
H        0.0498937432    0.2058682499    0.1931202386
H       -0.5557149982   -2.2230003307   -2.1042277546
C        0.4068909404    1.6172446315    1.5286738868
N        0.6215308952    2.4516801189    2.3310909145
6    
Image 1/11, Energy =  -169.0525239348 (+0.000 kcal/mol)
C       -0.3408130747   -1.4507797096   -1.3523911462
C       -0.2713965234   -0.5134988868   -0.6081360983
H       -0.1527335916    0.3096997125    0.0917388850
H       -0.3840479577   -2.2797259199   -1.9937111502
C        0.3560032189    1.6457250886    1.4960767072
N        0.7929879478    2.2885796807    2.3664227723
6    
Image 2/11, Energy =  -169.0501119294 (+1.514 kcal/mol)
C       -0.3095770043   -1.4311958309   -1.3090780083
C       -0.3895586669   -0.4332539494   -0.6523310255
H       -0.3545368216    0.4265427370   -0.0001148571
H       -0.2075499619   -2.3138819103   -1.8622243879
C        0.3207986256    1.6587985122    1.4671189418
N        0.9404238817    2.0929904360    2.3566293048
6    
Image 3/11, Energy =  -169.0465599986 (+3.742 kcal/mol)
C       -0.2761301451   -1.3956467695   -1.2516085724
C       -0.5006635657   -0.3608096646   -0.6945743318
H       -0.5562857006    0.5303408059   -0.0990946595
H       -0.0338780372   -2.3064222825   -1.7060679510
C        0.3120476935    1.6445953402    1.4411524663
N        1.0549098013    1.8879425572    2.3101931479
6    
Image 4/11, Energy =  -169.0418375211 (+6.706 kcal/mol)
C       -0.2413264832   -1.3425186407   -1.1816260323
C       -0.6022743517   -0.2951400148   -0.7323307251
H       -0.7596341298    0.6201874635   -0.2099308783
H        0.1345698261   -2.2564926839   -1.5244552025
C        0.3255808008    1.5889719345    1.4082431730
N        1.1430843666    1.6849918803    2.2400997321
6    
Image 5/11, Energy =  -169.0359662330 (+10.390 kcal/mol)
C       -0.2111961860   -1.2750746449   -1.1060338326
C       -0.6860756190   -0.2352317127   -0.7595972476
H       -0.9561488981    0.6913099669   -0.3266785498
H        0.2891399027   -2.1664033794   -1.3265921201
C        0.3578777093    1.4836361661    1.3561780115
N        1.2064031212    1.5017635944    2.1627237613
6    
Image 6/11, Energy =  -169.0276799988 (+15.590 kcal/mol)
C       -0.1956926436   -1.2008835894   -1.0376432005
C       -0.7342818826   -0.1728109315   -0.7568732490
H       -1.1330775094    0.7443047135   -0.4384259187
H        0.4221452978   -2.0396719764   -1.1198957719
C        0.4007482443    1.3227616956    1.2688734670
N        1.2401585039    1.3463000749    2.0839646470
6    
Image 7/11, Energy =  -169.0118342199 (+25.533 kcal/mol)
C       -0.2107831739   -1.1406426467   -1.0048372196
C       -0.7114994199   -0.0945231176   -0.6830203270
H       -1.2656767312    0.7749511308   -0.5285293928
H        0.5207658860   -1.8860259033   -0.9244006191
C        0.4386468935    1.1118646473    1.1448793283
N        1.2285465207    1.2343758811    1.9959081713
6    
Image 8/11, Energy =  -168.9962095846 (+35.338 kcal/mol)
C       -0.2521018949   -1.1071225914   -1.0124981785
C       -0.6147168895    0.0007658408   -0.5348183670
H       -1.3285271524    0.7771608146   -0.5801567446
H        0.5733087499   -1.7452329057   -0.7799527776
C        0.4535631422    0.9029205674    1.0129934483
N        1.1684740150    1.1715082933    1.8944325850
6    
Image 9/11, Energy =  -169.0185481864 (+21.320 kcal/mol)
C       -0.2719625516   -1.0757314587   -1.0098528780
C       -0.5069210254    0.0856166830   -0.3812102048
H       -1.3135117481    0.7752545292   -0.5708749214
H        0.5941009964   -1.6771003016   -0.7120056808
C        0.4053047108    0.7756581993    0.8955912835
N        1.0929895856    1.1163023882    1.7783524219
6    
Image 10/11, Energy =  -169.0437609545 (+5.499 kcal/mol)
C       -0.2721093513   -1.0384613434   -0.9953339881
C       -0.4664498990    0.1336943575   -0.3047184047
H       -1.3026915424    0.8069996864   -0.5503883163
H        0.6404231461   -1.5232274468   -0.5526624607
C        0.3524169885    0.6272448767    0.7650856657
N        1.0484106581    0.9937498643    1.6380174988
