6    
Image 0/11, Energy =  -169.0522692293 (+0.398 kcal/mol)
C       -0.3689809232   -1.4576547332   -1.3858823910
C       -0.1536196575   -0.5941379364   -0.5627748996
H        0.0498937432    0.2058682499    0.1931202386
H       -0.5557149982   -2.2230003307   -2.1042277546
C        0.4068909404    1.6172446315    1.5286738868
N        0.6215308952    2.4516801189    2.3310909145
6    
Image 1/11, Energy =  -169.0529040484 (+0.000 kcal/mol)
C       -0.3438322682   -1.4592285763   -1.3595202280
C       -0.2646686643   -0.5258592831   -0.6110802253
H       -0.1456154271    0.2959872088    0.0878710493
H       -0.3961408368   -2.2833084780   -2.0080645447
C        0.3502944708    1.6668569999    1.5113124002
N        0.7999628341    2.3055520962    2.3794815131
6    
Image 2/11, Energy =  -169.0507910197 (+1.326 kcal/mol)
C       -0.3136158413   -1.4433531342   -1.3189918462
C       -0.3743900812   -0.4500916912   -0.6519198489
H       -0.3376635913    0.4102592122   -0.0000722587
H       -0.2302109671   -2.3217255883   -1.8859047519
C        0.3051061068    1.6964246361    1.4871386018
N        0.9507744117    2.1084865435    2.3697499962
6    
Image 3/11, Energy =  -169.0474573338 (+3.418 kcal/mol)
C       -0.2794735716   -1.4077068289   -1.2612023056
C       -0.4823864481   -0.3739976951   -0.6919513413
H       -0.5364358857    0.5189022250   -0.0970513027
H       -0.0579032203   -2.3195213654   -1.7288255619
C        0.2864093455    1.6968792452    1.4655907420
N        1.0697897806    1.8854442841    2.3134397524
6    
Image 4/11, Energy =  -169.0430237396 (+6.200 kcal/mol)
C       -0.2426920405   -1.3545232719   -1.1898467118
C       -0.5861119239   -0.3034921104   -0.7328885337
H       -0.7432375131    0.6136767724   -0.2106556438
H        0.1131091493   -2.2750183773   -1.5427552468
C        0.2983459183    1.6554425897    1.4423589626
N        1.1605864445    1.6639143303    2.2337872277
6    
Image 5/11, Energy =  -169.0374750876 (+9.682 kcal/mol)
C       -0.2077914304   -1.2832589536   -1.1080613776
C       -0.6793954374   -0.2387259657   -0.7690494762
H       -0.9525723178    0.6908379661   -0.3401111040
H        0.2758132532   -2.1852809102   -1.3318895666
C        0.3342739547    1.5545888167    1.3998098153
N        1.2296720036    1.4618390698    2.1493018044
6    
Image 6/11, Energy =  -169.0296833903 (+14.571 kcal/mol)
C       -0.1858759157   -1.1974034999   -1.0248986928
C       -0.7457089138   -0.1716445164   -0.7784505654
H       -1.1432455826    0.7511165107   -0.4655872852
H        0.4227626343   -2.0457381212   -1.1018644841
C        0.3824314946    1.3752800241    1.3055839325
N        1.2696363820    1.2883896683    2.0652171249
6    
Image 7/11, Energy =  -169.0138365084 (+24.515 kcal/mol)
C       -0.2011695127   -1.1310690737   -0.9896262988
C       -0.7294796490   -0.0897190987   -0.7076620265
H       -1.2774211070    0.7869050767   -0.5596835261
H        0.5259868373   -1.8789853425   -0.8903377138
C        0.4232554520    1.1289975541    1.1661168135
N        1.2588281210    1.1838709881    1.9811927992
6    
Image 8/11, Energy =  -168.9961773961 (+35.597 kcal/mol)
C       -0.2504070377   -1.1026244992   -1.0116449811
C       -0.6169746796    0.0073782755   -0.5403122512
H       -1.3248945967    0.7883305541   -0.6013568624
H        0.5686226168   -1.7399189999   -0.7533989468
C        0.4404999554    0.9005091159    1.0207432646
N        1.1831538355    1.1463256779    1.8859699178
6    
Image 9/11, Energy =  -169.0167555696 (+22.684 kcal/mol)
C       -0.2705565277   -1.0735666805   -1.0106179590
C       -0.5088427153    0.0878779469   -0.3873250850
H       -1.3085991496    0.7818402251   -0.5896811519
H        0.5834277966   -1.6879070344   -0.7048363604
C        0.4009587418    0.7806841154    0.9089286423
N        1.1036119290    1.1110715387    1.7835320450
6    
Image 10/11, Energy =  -169.0437609544 (+5.737 kcal/mol)
C       -0.2721093513   -1.0384613434   -0.9953339881
C       -0.4664498990    0.1336943575   -0.3047184047
H       -1.3026915424    0.8069996864   -0.5503883163
H        0.6404231461   -1.5232274468   -0.5526624607
C        0.3524169885    0.6272448767    0.7650856657
N        1.0484106581    0.9937498643    1.6380174988
