6    
Image 0/11, Energy =  -169.0522692293 (+0.129 kcal/mol)
C       -0.3689809232   -1.4576547332   -1.3858823910
C       -0.1536196575   -0.5941379364   -0.5627748996
H        0.0498937432    0.2058682499    0.1931202386
H       -0.5557149982   -2.2230003307   -2.1042277546
C        0.4068909404    1.6172446315    1.5286738868
N        0.6215308952    2.4516801189    2.3310909145
6    
Image 1/11, Energy =  -169.0524749697 (+0.000 kcal/mol)
C       -0.3402221668   -1.4500576761   -1.3513614729
C       -0.2723227561   -0.5114425001   -0.6087355785
H       -0.1546166146    0.3123573047    0.0904540497
H       -0.3821404525   -2.2802786929   -1.9908567824
C        0.3540969636    1.6450748315    1.4947914304
N        0.7952050548    2.2843467036    2.3657083196
6    
Image 2/11, Energy =  -169.0500278998 (+1.536 kcal/mol)
C       -0.3086346419   -1.4300631865   -1.3073010936
C       -0.3909731909   -0.4305991629   -0.6533337608
H       -0.3574089327    0.4300752090   -0.0023774544
H       -0.2047048155   -2.3140186440   -1.8578884025
C        0.3183038796    1.6581344036    1.4660831156
N        0.9434177584    2.0864713721    2.3548175740
6    
Image 3/11, Energy =  -169.0464268220 (+3.795 kcal/mol)
C       -0.2748433290   -1.3937795126   -1.2490069751
C       -0.5024075421   -0.3573631247   -0.6961968657
H       -0.5604342081    0.5345814563   -0.1024515462
H       -0.0298904024   -2.3056228288   -1.6996553862
C        0.3090595421    1.6429823953    1.4409427660
N        1.0585159974    1.8792016072    2.3063680926
6    
Image 4/11, Energy =  -169.0416686619 (+6.781 kcal/mol)
C       -0.2400025888   -1.3399782164   -1.1787008923
C       -0.6040233353   -0.2914314338   -0.7346506443
H       -0.7649380967    0.6242421223   -0.2143642102
H        0.1392885997   -2.2544218091   -1.5163897400
C        0.3225181310    1.5862582548    1.4093515809
N        1.1471573204    1.6753310309    2.2347539839
6    
Image 5/11, Energy =  -169.0358717981 (+10.419 kcal/mol)
C       -0.2106907412   -1.2734369576   -1.1048031624
C       -0.6868880837   -0.2333203451   -0.7610308694
H       -0.9592692217    0.6931763201   -0.3296304564
H        0.2916087530   -2.1646466672   -1.3215145759
C        0.3564268922    1.4818315104    1.3573010489
N        1.2088124198    1.4963961222    2.1596780450
6    
Image 6/11, Energy =  -169.0275260615 (+15.656 kcal/mol)
C       -0.1953506921   -1.1989518391   -1.0364672501
C       -0.7349784698   -0.1708578071   -0.7576143602
H       -1.1362730532    0.7460123525   -0.4417725362
H        0.4248496752   -2.0365678632   -1.1139183278
C        0.3991217420    1.3197384717    1.2693389000
N        1.2426308005    1.3406266734    2.0804335483
6    
Image 7/11, Energy =  -169.0117096593 (+25.581 kcal/mol)
C       -0.2107206974   -1.1400580244   -1.0043523492
C       -0.7112704838   -0.0937475826   -0.6823455777
H       -1.2664735030    0.7754132741   -0.5296080929
H        0.5215251221   -1.8847497988   -0.9227800975
C        0.4379174566    1.1103168744    1.1444812680
N        1.2290220704    1.2328252622    1.9946047999
6    
Image 8/11, Energy =  -168.9962095846 (+35.307 kcal/mol)
C       -0.2521018949   -1.1071225914   -1.0124981785
C       -0.6147168895    0.0007658408   -0.5348183670
H       -1.3285271524    0.7771608146   -0.5801567446
H        0.5733087499   -1.7452329057   -0.7799527776
C        0.4535631422    0.9029205674    1.0129934483
N        1.1684740150    1.1715082933    1.8944325850
6    
Image 9/11, Energy =  -169.0185481864 (+21.289 kcal/mol)
C       -0.2719625516   -1.0757314587   -1.0098528780
C       -0.5069210254    0.0856166830   -0.3812102048
H       -1.3135117481    0.7752545292   -0.5708749214
H        0.5941009964   -1.6771003016   -0.7120056808
C        0.4053047108    0.7756581993    0.8955912835
N        1.0929895856    1.1163023882    1.7783524219
6    
Image 10/11, Energy =  -169.0437609545 (+5.468 kcal/mol)
C       -0.2721093513   -1.0384613434   -0.9953339881
C       -0.4664498990    0.1336943575   -0.3047184047
H       -1.3026915424    0.8069996864   -0.5503883163
H        0.6404231461   -1.5232274468   -0.5526624607
C        0.3524169885    0.6272448767    0.7650856657
N        1.0484106581    0.9937498643    1.6380174988
