6    
Image 0/11, Energy =  -169.0522692293 (+0.349 kcal/mol)
C       -0.3689809232   -1.4576547332   -1.3858823910
C       -0.1536196575   -0.5941379364   -0.5627748996
H        0.0498937432    0.2058682499    0.1931202386
H       -0.5557149982   -2.2230003307   -2.1042277546
C        0.4068909404    1.6172446315    1.5286738868
N        0.6215308952    2.4516801189    2.3310909145
6    
Image 1/11, Energy =  -169.0528255617 (+0.000 kcal/mol)
C       -0.3479657908   -1.4531167328   -1.3647458510
C       -0.2754602395   -0.5274492562   -0.6050613696
H       -0.1425500887    0.2855977957    0.1040458943
H       -0.3911258813   -2.2750302999   -2.0166875635
C        0.3877013265    1.6318468906    1.5173945849
N        0.7694006997    2.3381515931    2.3650543329
6    
Image 2/11, Energy =  -169.0507536122 (+1.300 kcal/mol)
C       -0.3246461494   -1.4405789227   -1.3332169854
C       -0.3942429019   -0.4601464162   -0.6477137222
H       -0.3341465168    0.3825051359    0.0252745050
H       -0.2233430642   -2.3092418060   -1.9101277302
C        0.3742455215    1.6336056529    1.4933311494
N        0.9021331512    2.1938563584    2.3724528027
6    
Image 3/11, Energy =  -169.0474984850 (+3.343 kcal/mol)
C       -0.2963135919   -1.4145088901   -1.2841060260
C       -0.5040280792   -0.3944101529   -0.6907322591
H       -0.5260919798    0.4776408370   -0.0636730695
H       -0.0583756489   -2.3096819091   -1.7728407528
C        0.3716303662    1.6214876241    1.4588916938
N        1.0131789108    2.0194724897    2.3524604276
6    
Image 4/11, Energy =  -169.0431502679 (+6.071 kcal/mol)
C       -0.2629634443   -1.3690910309   -1.2204011115
C       -0.6021951885   -0.3335505207   -0.7257522538
H       -0.7192089063    0.5675642833   -0.1657491965
H        0.1012554532   -2.2728824347   -1.6037763357
C        0.3828976916    1.5863998561    1.4105849088
N        1.1002143328    1.8215598786    2.3050939700
6    
Image 5/11, Energy =  -169.0376236173 (+9.539 kcal/mol)
C       -0.2287036916   -1.3050508847   -1.1417891368
C       -0.6829806920   -0.2717089505   -0.7520242062
H       -0.9097190253    0.6482860162   -0.2776660294
H        0.2521920648   -2.1957221024   -1.4058587682
C        0.4065710695    1.5129240760    1.3456173566
N        1.1626402153    1.6112718274    2.2317207889
6    
Image 6/11, Energy =  -169.0297671006 (+14.469 kcal/mol)
C       -0.2044657315   -1.2269161894   -1.0590946880
C       -0.7347216203   -0.2015191372   -0.7545898715
H       -1.0946817482    0.7165578423   -0.3950187083
H        0.3934276024   -2.0727481105   -1.1847912719
C        0.4381236262    1.3733837860    1.2543994717
N        1.2023178663    1.4112418097    2.1390950771
6    
Image 7/11, Energy =  -169.0137937140 (+24.493 kcal/mol)
C       -0.2133548658   -1.1504587369   -1.0061256225
C       -0.7207484724   -0.1089956725   -0.6917913829
H       -1.2588700970    0.7636324575   -0.5119449648
H        0.5155922248   -1.8963989653   -0.9438732077
C        0.4665538308    1.1529072013    1.1283885518
N        1.2108273849    1.2393136801    2.0253466399
6    
Image 8/11, Energy =  -168.9961661195 (+35.554 kcal/mol)
C       -0.2578364639   -1.1054014914   -1.0054748919
C       -0.6135172331    0.0160536353   -0.5321790789
H       -1.3512855745    0.7707171544   -0.5955480697
H        0.5881422940   -1.7040849966   -0.7375466316
C        0.4661367916    0.8983098028    0.9829134924
N        1.1683602303    1.1244058715    1.8878351568
6    
Image 9/11, Energy =  -169.0169467347 (+22.514 kcal/mol)
C       -0.2709236098   -1.0783967741   -1.0016541193
C       -0.5204391578    0.0904006005   -0.3985201363
H       -1.3349839662    0.7737566584   -0.5844355112
H        0.6066062921   -1.6496292318   -0.6822048543
C        0.4160161338    0.7802861908    0.8847041143
N        1.1037243218    1.0835825497    1.7821105176
6    
Image 10/11, Energy =  -169.0437609545 (+5.688 kcal/mol)
C       -0.2721093513   -1.0384613434   -0.9953339881
C       -0.4664498990    0.1336943575   -0.3047184047
H       -1.3026915424    0.8069996864   -0.5503883163
H        0.6404231461   -1.5232274468   -0.5526624607
C        0.3524169885    0.6272448767    0.7650856657
N        1.0484106581    0.9937498643    1.6380174988
