6    
Image 0/11, Energy =  -169.0522692293 (+0.811 kcal/mol)
C       -0.3689809232   -1.4576547332   -1.3858823910
C       -0.1536196575   -0.5941379364   -0.5627748996
H        0.0498937432    0.2058682499    0.1931202386
H       -0.5557149982   -2.2230003307   -2.1042277546
C        0.4068909404    1.6172446315    1.5286738868
N        0.6215308952    2.4516801189    2.3310909145
6    
Image 1/11, Energy =  -169.0535614773 (+0.000 kcal/mol)
C       -0.3542540208   -1.4792012890   -1.3906679814
C       -0.2640938870   -0.5632802594   -0.6217239356
H       -0.1383111808    0.2431117335    0.0886379738
H       -0.4176318840   -2.2892165503   -2.0581323663
C        0.3798803463    1.6907888813    1.5737269192
N        0.7944106016    2.3977974413    2.4081593271
6    
Image 2/11, Energy =  -169.0521421828 (+0.891 kcal/mol)
C       -0.3286487265   -1.4697401955   -1.3632626153
C       -0.3523095142   -0.5116484315   -0.6425045835
H       -0.2993290338    0.3263180334    0.0371589703
H       -0.2825285857   -2.3168415750   -1.9845909345
C        0.3252775265    1.7218195860    1.5539738256
N        0.9375382508    2.2500924358    2.3992253994
6    
Image 3/11, Energy =  -169.0501692711 (+2.129 kcal/mol)
C       -0.3033708863   -1.4477301904   -1.3222998846
C       -0.4223251771   -0.4509326273   -0.6670891187
H       -0.4313696213    0.4161684401   -0.0277137817
H       -0.1668952488   -2.3302519324   -1.8764784720
C        0.2924098511    1.7393099493    1.5251264876
N        1.0315509746    2.0734363122    2.3684546645
6    
Image 4/11, Energy =  -169.0461483143 (+4.652 kcal/mol)
C       -0.2640981552   -1.4023624021   -1.2429296191
C       -0.5242064670   -0.3645661950   -0.7042042263
H       -0.6372726742    0.5412629036   -0.1440185132
H        0.0087550005   -2.3170349069   -1.6821603724
C        0.2760237569    1.7623132143    1.4923061655
N        1.1407983442    1.7803874603    2.2810066467
6    
Image 5/11, Energy =  -169.0409980826 (+7.884 kcal/mol)
C       -0.2238293806   -1.3395021779   -1.1488089936
C       -0.6320301950   -0.2889028729   -0.7473938131
H       -0.8696886672    0.6423534095   -0.2930636360
H        0.1881095746   -2.2565888311   -1.4535634536
C        0.3185555008    1.7472109275    1.4678567078
N        1.2188828583    1.4954296873    2.1749732959
6    
Image 6/11, Energy =  -169.0356464350 (+11.242 kcal/mol)
C       -0.1922994002   -1.2580286471   -1.0496474376
C       -0.7250458369   -0.2201288015   -0.7919613435
H       -1.0838665134    0.7166611171   -0.4580340284
H        0.3374212055   -2.1507325611   -1.2108334903
C        0.3855683774    1.6674658217    1.4391933528
N        1.2782219880    1.2447630402    2.0712829026
6    
Image 7/11, Energy =  -169.0297884722 (+14.918 kcal/mol)
C       -0.1729305179   -1.1594004096   -0.9666924100
C       -0.7967928930   -0.1510111607   -0.8276458092
H       -1.2528905840    0.7707754756   -0.5988366541
H        0.4598037870   -1.9973556970   -0.9798180622
C        0.4174610816    1.4341644535    1.3689693477
N        1.3453492161    1.1028274499    2.0040237353
6    
Image 8/11, Energy =  -169.0163452922 (+23.354 kcal/mol)
C       -0.1892897672   -1.1085898416   -0.9551703885
C       -0.7636212693   -0.0774868988   -0.7504457250
H       -1.3038937433    0.8095943098   -0.6158149199
H        0.5300241432   -1.8621872757   -0.8327845510
C        0.4188901111    1.1371975427    1.1974302333
N        1.3078908535    1.1014721446    1.9567854751
6    
Image 9/11, Energy =  -168.9961757669 (+36.010 kcal/mol)
C       -0.2583157860   -1.1004602222   -1.0104194051
C       -0.6121321603    0.0160691936   -0.5450033814
H       -1.3044972851    0.8095029131   -0.6167563534
H        0.5444179831   -1.7530641731   -0.7406454158
C        0.4383527744    0.8931941584    1.0280940859
N        1.1921747588    1.1347579999    1.8847305186
6    
Image 10/11, Energy =  -169.0437609544 (+6.150 kcal/mol)
C       -0.2721093513   -1.0384613434   -0.9953339881
C       -0.4664498990    0.1336943575   -0.3047184047
H       -1.3026915424    0.8069996864   -0.5503883163
H        0.6404231461   -1.5232274468   -0.5526624607
C        0.3524169885    0.6272448767    0.7650856657
N        1.0484106581    0.9937498643    1.6380174988
