6    
Image 0/11, Energy =  -169.0522692293 (+0.315 kcal/mol)
C       -0.3689809232   -1.4576547332   -1.3858823910
C       -0.1536196575   -0.5941379364   -0.5627748996
H        0.0498937432    0.2058682499    0.1931202386
H       -0.5557149982   -2.2230003307   -2.1042277546
C        0.4068909404    1.6172446315    1.5286738868
N        0.6215308952    2.4516801189    2.3310909145
6    
Image 1/11, Energy =  -169.0527705558 (+0.000 kcal/mol)
C       -0.3451035418   -1.4542079690   -1.3590304029
C       -0.2712040817   -0.5238664526   -0.6060622044
H       -0.1457557442    0.2942868369    0.0985027153
H       -0.3904809326   -2.2764870684   -2.0096989154
C        0.3722046682    1.6433154257    1.5072629652
N        0.7803396469    2.3169592374    2.3690258333
6    
Image 2/11, Energy =  -169.0506464931 (+1.333 kcal/mol)
C       -0.3169197027   -1.4392742611   -1.3209946252
C       -0.3859554034   -0.4526278527   -0.6479125625
H       -0.3395759731    0.4008846526    0.0135944444
H       -0.2222539159   -2.3120395407   -1.8936637930
C        0.3436243703    1.6583627298    1.4787793833
N        0.9210806353    2.1446942644    2.3701971692
6    
Image 3/11, Energy =  -169.0473630200 (+3.393 kcal/mol)
C       -0.2854244199   -1.4093454607   -1.2682671415
C       -0.4942904361   -0.3837642938   -0.6880477923
H       -0.5343909228    0.4999492637   -0.0791127622
H       -0.0551782397   -2.3101047270   -1.7492365846
C        0.3364233663    1.6490708590    1.4483784669
N        1.0328606755    1.9541943503    2.3362858357
6    
Image 4/11, Energy =  -169.0428556859 (+6.222 kcal/mol)
C       -0.2517018497   -1.3600989835   -1.2020078019
C       -0.5946891738   -0.3186204526   -0.7241466074
H       -0.7325193508    0.5903791265   -0.1845582363
H        0.1091417413   -2.2682573470   -1.5741321423
C        0.3505331074    1.6028210453    1.4081980230
N        1.1192355449    1.7537765693    2.2766467770
6    
Image 5/11, Energy =  -169.0369269661 (+9.942 kcal/mol)
C       -0.2200936437   -1.2916404236   -1.1237910686
C       -0.6806932842   -0.2537211782   -0.7521341827
H       -0.9322236156    0.6703107199   -0.3020499338
H        0.2679298673   -2.1827988643   -1.3691584364
C        0.3808177722    1.5056892084    1.3485252356
N        1.1842629104    1.5521604743    2.1986083959
6    
Image 6/11, Energy =  -169.0283059444 (+15.352 kcal/mol)
C       -0.2006650590   -1.2112989068   -1.0462831782
C       -0.7322638460   -0.1836460783   -0.7513811435
H       -1.1194241667    0.7341774322   -0.4211245107
H        0.4116322601   -2.0517124897   -1.1452995065
C        0.4177074977    1.3431507674    1.2581747409
N        1.2230133353    1.3693292305    2.1059135850
6    
Image 7/11, Energy =  -169.0121297554 (+25.502 kcal/mol)
C       -0.2122486487   -1.1445188554   -1.0057864502
C       -0.7110065378   -0.0990015290   -0.6805046114
H       -1.2607914021    0.7718351202   -0.5203122635
H        0.5182204138   -1.8913035865   -0.9346148494
C        0.4460288152    1.1242425431    1.1370525856
N        1.2197973622    1.2387463347    2.0041656088
6    
Image 8/11, Energy =  -168.9962007569 (+35.498 kcal/mol)
C       -0.2522644714   -1.1072913628   -1.0119873495
C       -0.6142341587    0.0012114327   -0.5347890936
H       -1.3287559961    0.7767702138   -0.5793926412
H        0.5739646335   -1.7440726912   -0.7785585657
C        0.4535001710    0.9054682421    1.0106333153
N        1.1677898022    1.1679141846    1.8940943100
6    
Image 9/11, Energy =  -169.0189777474 (+21.205 kcal/mol)
C       -0.2717456742   -1.0753348355   -1.0088722605
C       -0.5057521498    0.0867915842   -0.3802270901
H       -1.3134494458    0.7752570920   -0.5700178016
H        0.5945601350   -1.6764602844   -0.7110463809
C        0.4046790660    0.7756028897    0.8929714465
N        1.0917080537    1.1141435964    1.7771921159
6    
Image 10/11, Energy =  -169.0437609545 (+5.654 kcal/mol)
C       -0.2721093513   -1.0384613434   -0.9953339881
C       -0.4664498990    0.1336943575   -0.3047184047
H       -1.3026915424    0.8069996864   -0.5503883163
H        0.6404231461   -1.5232274468   -0.5526624607
C        0.3524169885    0.6272448767    0.7650856657
N        1.0484106581    0.9937498643    1.6380174988
