6    
Image 0/11, Energy =  -169.0522692293 (+0.124 kcal/mol)
C       -0.3689809232   -1.4576547332   -1.3858823910
C       -0.1536196575   -0.5941379364   -0.5627748996
H        0.0498937432    0.2058682499    0.1931202386
H       -0.5557149982   -2.2230003307   -2.1042277546
C        0.4068909404    1.6172446315    1.5286738868
N        0.6215308952    2.4516801189    2.3310909145
6    
Image 1/11, Energy =  -169.0524665248 (+0.000 kcal/mol)
C       -0.3498777742   -1.4462645262   -1.3681896838
C       -0.2784821146   -0.5280529895   -0.6047948575
H       -0.1332216367    0.2748923713    0.1188195592
H       -0.4001643178   -2.2656980675   -2.0250481008
C        0.4332820775    1.5827312188    1.5394141109
N        0.7284637974    2.3823919949    2.3397989993
6    
Image 2/11, Energy =  -169.0497391880 (+1.711 kcal/mol)
C       -0.3273956646   -1.4324406170   -1.3380126600
C       -0.3977061808   -0.4606298312   -0.6439431111
H       -0.3197856846    0.3657289387    0.0498621535
H       -0.2396984398   -2.2931520916   -1.9284041385
C        0.4517735393    1.5401442571    1.5216157450
N        0.8328124449    2.2803493303    2.3388820263
6    
Image 3/11, Energy =  -169.0458556741 (+4.148 kcal/mol)
C       -0.2975085012   -1.4079279095   -1.2874986778
C       -0.5089108275   -0.3962808818   -0.6866737462
H       -0.5175047090    0.4616030633   -0.0388332521
H       -0.0764900352   -2.2940750282   -1.7997709424
C        0.4614196293    1.4988832277    1.4811242638
N        0.9389944573    2.1377975397    2.3316523562
6    
Image 4/11, Energy =  -169.0411803332 (+7.082 kcal/mol)
C       -0.2609497854   -1.3643628264   -1.2212416824
C       -0.6094521074   -0.3398935119   -0.7200953966
H       -0.7268433631    0.5534447028   -0.1473635404
H        0.0872279612   -2.2608752820   -1.6381339629
C        0.4683933204    1.4595029079    1.4167849545
N        1.0416239875    1.9521839916    2.3100496093
6    
Image 5/11, Energy =  -169.0360291699 (+10.315 kcal/mol)
C       -0.2228907556   -1.3042666294   -1.1373006166
C       -0.6898373763   -0.2808914550   -0.7415186361
H       -0.9247526800    0.6363366098   -0.2671518207
H        0.2409665687   -2.1906174706   -1.4454147181
C        0.4717732264    1.4237065123    1.3332161626
N        1.1247409885    1.7157324217    2.2581696130
6    
Image 6/11, Energy =  -169.0295387860 (+14.387 kcal/mol)
C       -0.1934730863   -1.2295022093   -1.0432526449
C       -0.7404097427   -0.2110168246   -0.7411516271
H       -1.1013474022    0.7104357894   -0.3886034814
H        0.3844272568   -2.0805909599   -1.2235366666
C        0.4751298018    1.3609565414    1.2325445841
N        1.1756731332    1.4497176519    2.1639998390
6    
Image 7/11, Energy =  -169.0169844861 (+22.265 kcal/mol)
C       -0.1926891637   -1.1555025820   -0.9791065301
C       -0.7272094596   -0.1224373643   -0.6852305560
H       -1.2398773707    0.7637787920   -0.4924150269
H        0.5015119189   -1.9351128151   -0.9947663122
C        0.4734778574    1.2232371037    1.1119860305
N        1.1847862135    1.2260368508    2.0395323854
6    
Image 8/11, Energy =  -168.9966397900 (+35.032 kcal/mol)
C       -0.2309191668   -1.1087153644   -0.9740691443
C       -0.6259752448   -0.0163634376   -0.5522277745
H       -1.3127023103    0.7777201593   -0.5526219568
H        0.5652229138   -1.7947302298   -0.8283654082
C        0.4557037039    1.0158149972    0.9899503579
N        1.1486701337    1.1262738750    1.9173339274
6    
Image 9/11, Energy =  -169.0142072847 (+24.008 kcal/mol)
C       -0.2651778719   -1.0816690688   -0.9898886959
C       -0.5084645848    0.0873213590   -0.3882709342
H       -1.3111277683    0.7793711263   -0.5583853317
H        0.5952095899   -1.7098717631   -0.7402271330
C        0.4066362634    0.8309179098    0.8805793053
N        1.0829243883    1.0939304179    1.7961927746
6    
Image 10/11, Energy =  -169.0437609545 (+5.463 kcal/mol)
C       -0.2721093513   -1.0384613434   -0.9953339881
C       -0.4664498990    0.1336943575   -0.3047184047
H       -1.3026915424    0.8069996864   -0.5503883163
H        0.6404231461   -1.5232274468   -0.5526624607
C        0.3524169885    0.6272448767    0.7650856657
N        1.0484106581    0.9937498643    1.6380174988
