6    
Image 0/11, Energy =  -169.0522692293 (+0.275 kcal/mol)
C       -0.3689809232   -1.4576547332   -1.3858823910
C       -0.1536196575   -0.5941379364   -0.5627748996
H        0.0498937432    0.2058682499    0.1931202386
H       -0.5557149982   -2.2230003307   -2.1042277546
C        0.4068909404    1.6172446315    1.5286738868
N        0.6215308952    2.4516801189    2.3310909145
6    
Image 1/11, Energy =  -169.0527075880 (+0.000 kcal/mol)
C       -0.3521038563   -1.4507845313   -1.3651571303
C       -0.2759785643   -0.5269348341   -0.6054872799
H       -0.1380642907    0.2776937882    0.1122379703
H       -0.3931497511   -2.2682725830   -2.0210732950
C        0.4098251935    1.6077914344    1.5265774246
N        0.7494713121    2.3605066914    2.3529023442
6    
Image 2/11, Energy =  -169.0503894728 (+1.455 kcal/mol)
C       -0.3287967614   -1.4366810713   -1.3374248982
C       -0.3961211607   -0.4609527319   -0.6470284959
H       -0.3274020384    0.3721157924    0.0361552584
H       -0.2294497701   -2.3013803283   -1.9183179229
C        0.4111786872    1.5866072570    1.5064618741
N        0.8705910607    2.2402910765    2.3601542113
6    
Image 3/11, Energy =  -169.0468455340 (+3.678 kcal/mol)
C       -0.2996237072   -1.4092245118   -1.2935385831
C       -0.5077427897   -0.4000455064   -0.6847840079
H       -0.5234187863    0.4668654551   -0.0530420819
H       -0.0653445629   -2.3015126762   -1.7849740752
C        0.4162832414    1.5586411307    1.4676287711
N        0.9798465924    2.0852761338    2.3487099664
6    
Image 4/11, Energy =  -169.0424023735 (+6.467 kcal/mol)
C       -0.2678125130   -1.3676118598   -1.2280223880
C       -0.6041943332   -0.3399091244   -0.7206169782
H       -0.7205540843    0.5578475756   -0.1565920184
H        0.0951033452   -2.2664299091   -1.6205590086
C        0.4237903396    1.5256151323    1.4112596101
N        1.0736671964    1.8904882074    2.3145307468
6    
Image 5/11, Energy =  -169.0370141021 (+9.848 kcal/mol)
C       -0.2345031554   -1.3085458899   -1.1468819430
C       -0.6829957036   -0.2771786157   -0.7450260190
H       -0.9158181542    0.6413156470   -0.2713363490
H        0.2499065693   -2.1934020424   -1.4243379888
C        0.4374477557    1.4741910294    1.3368248483
N        1.1459626264    1.6636198628    2.2507574462
6    
Image 6/11, Energy =  -169.0298221335 (+14.361 kcal/mol)
C       -0.2060678806   -1.2328628786   -1.0615348506
C       -0.7316468023   -0.2064095080   -0.7462947936
H       -1.0951543934    0.7120041070   -0.3865539198
H        0.3894281394   -2.0803504916   -1.2032285212
C        0.4554377401    1.3763082202    1.2428953639
N        1.1880031759    1.4313105367    2.1547167450
6    
Image 7/11, Energy =  -169.0159295783 (+23.079 kcal/mol)
C       -0.2048981469   -1.1580942950   -0.9988686002
C       -0.7186334324   -0.1176153538   -0.6920108644
H       -1.2435339502    0.7613702462   -0.4899060264
H        0.5035258445   -1.9284366463   -0.9818290266
C        0.4695009130    1.1953662997    1.1244922982
N        1.1940387771    1.2474097554    2.0381222508
6    
Image 8/11, Energy =  -168.9959832144 (+35.595 kcal/mol)
C       -0.2446406862   -1.1056966920   -0.9863538351
C       -0.6210061641    0.0062642487   -0.5445375300
H       -1.3419054718    0.7783225501   -0.5758431798
H        0.5842599347   -1.7476922995   -0.7763702657
C        0.4647336589    0.9445169527    0.9816887429
N        1.1585587573    1.1242852155    1.9014160909
6    
Image 9/11, Energy =  -169.0137155070 (+24.468 kcal/mol)
C       -0.2691967944   -1.0817313428   -0.9974486202
C       -0.5150121778    0.0835687517   -0.4002808059
H       -1.3217723251    0.7736858783   -0.5674350411
H        0.5963097243   -1.6904791555   -0.7230984937
C        0.4171291572    0.8145866070    0.8906392263
N        1.0925424382    1.1003692479    1.7976237495
6    
Image 10/11, Energy =  -169.0437609545 (+5.614 kcal/mol)
C       -0.2721093513   -1.0384613434   -0.9953339881
C       -0.4664498990    0.1336943575   -0.3047184047
H       -1.3026915424    0.8069996864   -0.5503883163
H        0.6404231461   -1.5232274468   -0.5526624607
C        0.3524169885    0.6272448767    0.7650856657
N        1.0484106581    0.9937498643    1.6380174988
