6    
Image 0/11, Energy =  -169.0522692293 (+0.115 kcal/mol)
C       -0.3689809232   -1.4576547332   -1.3858823910
C       -0.1536196575   -0.5941379364   -0.5627748996
H        0.0498937432    0.2058682499    0.1931202386
H       -0.5557149982   -2.2230003307   -2.1042277546
C        0.4068909404    1.6172446315    1.5286738868
N        0.6215308952    2.4516801189    2.3310909145
6    
Image 1/11, Energy =  -169.0524519454 (+0.000 kcal/mol)
C       -0.3503756365   -1.4493445487   -1.3688323731
C       -0.2768047976   -0.5251480318   -0.6064099254
H       -0.1339519476    0.2751445608    0.1215849995
H       -0.4012271088   -2.2652366318   -2.0257444284
C        0.4366572533    1.5800558142    1.5413765657
N        0.7257022695    2.3845288461    2.3380251823
6    
Image 2/11, Energy =  -169.0496358028 (+1.767 kcal/mol)
C       -0.3291236662   -1.4341840321   -1.3368401806
C       -0.3952170194   -0.4581061670   -0.6459655949
H       -0.3203457299    0.3642045804    0.0545122726
H       -0.2405161904   -2.2916504337   -1.9305615272
C        0.4573724540    1.5334217829    1.5221447813
N        0.8278301600    2.2863142552    2.3367102670
6    
Image 3/11, Energy =  -169.0457028981 (+4.235 kcal/mol)
C       -0.2973249065   -1.4105419360   -1.2852171710
C       -0.5082107022   -0.3940885661   -0.6880648811
H       -0.5164732988    0.4612075064   -0.0366127664
H       -0.0783103186   -2.2916484080   -1.8019365582
C        0.4659734916    1.4901318529    1.4814285285
N        0.9343457535    2.1449395505    2.3304028506
6    
Image 4/11, Energy =  -169.0409807966 (+7.198 kcal/mol)
C       -0.2574992913   -1.3653549963   -1.2190928242
C       -0.6119026695   -0.3396955429   -0.7219998360
H       -0.7278128117    0.5536206040   -0.1449343938
H        0.0853418782   -2.2592688253   -1.6405151711
C        0.4749295518    1.4512335091    1.4182576879
N        1.0369433578    1.9594652313    2.3082845220
6    
Image 5/11, Energy =  -169.0358557418 (+10.414 kcal/mol)
C       -0.2169973944   -1.3055174365   -1.1354124600
C       -0.6943325842   -0.2787856082   -0.7418341722
H       -0.9266742698    0.6387875725   -0.2649836916
H        0.2398319168   -2.1929050385   -1.4489456895
C        0.4759175730    1.4167362512    1.3323371834
N        1.1222547330    1.7216842484    2.2588388163
6    
Image 6/11, Energy =  -169.0294723938 (+14.420 kcal/mol)
C       -0.1902027446   -1.2285729500   -1.0398358371
C       -0.7431199138   -0.2117865277   -0.7403533025
H       -1.1046222786    0.7157707156   -0.3877565431
H        0.3861353945   -2.0852245697   -1.2280374729
C        0.4770584075    1.3569586645    1.2302511329
N        1.1747511045    1.4528546512    2.1657320121
6    
Image 7/11, Energy =  -169.0170562170 (+22.211 kcal/mol)
C       -0.1924617725   -1.1534216614   -0.9757455922
C       -0.7283871424   -0.1249110529   -0.6834731778
H       -1.2432370894    0.7700058067   -0.4934017907
H        0.5060333306   -1.9386276877   -0.9957647221
C        0.4740626198    1.2252871857    1.1093842519
N        1.1839900407    1.2216673951    2.0390010235
6    
Image 8/11, Energy =  -168.9967399468 (+34.960 kcal/mol)
C       -0.2291214868   -1.1125551332   -0.9746755619
C       -0.6285979491   -0.0149387042   -0.5506971726
H       -1.3104274418    0.7789867685   -0.5516103988
H        0.5653272475   -1.8006567209   -0.8325839853
C        0.4535048281    1.0246840347    0.9888723447
N        1.1493148364    1.1244797523    1.9206947702
6    
Image 9/11, Energy =  -169.0148277728 (+23.610 kcal/mol)
C       -0.2674191837   -1.0793192973   -0.9903390927
C       -0.5041824286    0.0878641189   -0.3841075484
H       -1.3119234335    0.7778798564   -0.5580152099
H        0.5961530248   -1.7110829566   -0.7410991077
C        0.4055297303    0.8320703341    0.8782193758
N        1.0818423083    1.0925879264    1.7953415698
6    
Image 10/11, Energy =  -169.0437609545 (+5.454 kcal/mol)
C       -0.2721093513   -1.0384613434   -0.9953339881
C       -0.4664498990    0.1336943575   -0.3047184047
H       -1.3026915424    0.8069996864   -0.5503883163
H        0.6404231461   -1.5232274468   -0.5526624607
C        0.3524169885    0.6272448767    0.7650856657
N        1.0484106581    0.9937498643    1.6380174988
