6    
Image 0/11, Energy =  -169.0522692293 (+0.811 kcal/mol)
C       -0.3689809232   -1.4576547332   -1.3858823910
C       -0.1536196575   -0.5941379364   -0.5627748996
H        0.0498937432    0.2058682499    0.1931202386
H       -0.5557149982   -2.2230003307   -2.1042277546
C        0.4068909404    1.6172446315    1.5286738868
N        0.6215308952    2.4516801189    2.3310909145
6    
Image 1/11, Energy =  -169.0535614773 (+0.000 kcal/mol)
C       -0.3542540208   -1.4792012890   -1.3906679814
C       -0.2640938870   -0.5632802594   -0.6217239356
H       -0.1383111808    0.2431117335    0.0886379738
H       -0.4176318840   -2.2892165503   -2.0581323663
C        0.3798803463    1.6907888813    1.5737269192
N        0.7944106016    2.3977974413    2.4081593271
6    
Image 2/11, Energy =  -169.0521421828 (+0.891 kcal/mol)
C       -0.3286487265   -1.4697401955   -1.3632626153
C       -0.3523095142   -0.5116484315   -0.6425045835
H       -0.2993290338    0.3263180334    0.0371589703
H       -0.2825285857   -2.3168415750   -1.9845909345
C        0.3252775265    1.7218195860    1.5539738256
N        0.9375382508    2.2500924358    2.3992253994
6    
Image 3/11, Energy =  -169.0501692711 (+2.129 kcal/mol)
C       -0.3033708863   -1.4477301904   -1.3222998846
C       -0.4223251771   -0.4509326273   -0.6670891187
H       -0.4313696213    0.4161684401   -0.0277137817
H       -0.1668952488   -2.3302519324   -1.8764784720
C        0.2924098511    1.7393099493    1.5251264876
N        1.0315509746    2.0734363122    2.3684546645
6    
Image 4/11, Energy =  -169.0461432259 (+4.655 kcal/mol)
C       -0.2642335158   -1.4024369316   -1.2436270771
C       -0.5248909191   -0.3652059851   -0.7043822312
H       -0.6390871997    0.5407466282   -0.1446646874
H        0.0098849057   -2.3169558196   -1.6825340169
C        0.2772362816    1.7613990198    1.4927845254
N        1.1410902672    1.7824531474    2.2824235697
6    
Image 5/11, Energy =  -169.0409866959 (+7.891 kcal/mol)
C       -0.2233376697   -1.3396527452   -1.1491115403
C       -0.6334954138   -0.2897744791   -0.7480199838
H       -0.8720031565    0.6411497365   -0.2936984085
H        0.1895275210   -2.2561669988   -1.4541727453
C        0.3203031460    1.7468093830    1.4678575709
N        1.2190052683    1.4976352617    2.1771452233
6    
Image 6/11, Energy =  -169.0356391676 (+11.246 kcal/mol)
C       -0.1918371281   -1.2582498610   -1.0494473175
C       -0.7256564015   -0.2208122185   -0.7916588217
H       -1.0854822752    0.7155708232   -0.4579530152
H        0.3386190766   -2.1503616786   -1.2110666974
C        0.3871985300    1.6697016873    1.4378951602
N        1.2771580093    1.2441512172    2.0722306376
6    
Image 7/11, Energy =  -169.0297687092 (+14.930 kcal/mol)
C       -0.1727348958   -1.1589311249   -0.9654762771
C       -0.7977265983   -0.1510310392   -0.8274459279
H       -1.2550351952    0.7706126457   -0.6004288412
H        0.4611574025   -1.9960908169   -0.9772957463
C        0.4196000544    1.4371699460    1.3673811816
N        1.3447392957    1.0982705036    2.0032657580
6    
Image 8/11, Energy =  -169.0163547473 (+23.348 kcal/mol)
C       -0.1885389627   -1.1077741950   -0.9535549909
C       -0.7639415607   -0.0769594881   -0.7505369518
H       -1.3056574688    0.8094626412   -0.6172365655
H        0.5310753814   -1.8611875029   -0.8317204305
C        0.4182914864    1.1376041708    1.1977164996
N        1.3087714668    1.0988543735    1.9553325685
6    
Image 9/11, Energy =  -168.9961667646 (+36.016 kcal/mol)
C       -0.2579280174   -1.1002327394   -1.0097145225
C       -0.6123603851    0.0164043101   -0.5447999269
H       -1.3050406435    0.8093697675   -0.6174110660
H        0.5452913846   -1.7519076724   -0.7392221536
C        0.4369243145    0.8947713882    1.0275734400
N        1.1931136203    1.1315948245    1.8835742792
6    
Image 10/11, Energy =  -169.0437609544 (+6.150 kcal/mol)
C       -0.2721093513   -1.0384613434   -0.9953339881
C       -0.4664498990    0.1336943575   -0.3047184047
H       -1.3026915424    0.8069996864   -0.5503883163
H        0.6404231461   -1.5232274468   -0.5526624607
C        0.3524169885    0.6272448767    0.7650856657
N        1.0484106581    0.9937498643    1.6380174988
