6    
Image 0/11, Energy =  -169.0522692293 (+0.250 kcal/mol)
C       -0.3689809232   -1.4576547332   -1.3858823910
C       -0.1536196575   -0.5941379364   -0.5627748996
H        0.0498937432    0.2058682499    0.1931202386
H       -0.5557149982   -2.2230003307   -2.1042277546
C        0.4068909404    1.6172446315    1.5286738868
N        0.6215308952    2.4516801189    2.3310909145
6    
Image 1/11, Energy =  -169.0526671703 (+0.000 kcal/mol)
C       -0.3516974138   -1.4494709758   -1.3665491083
C       -0.2770399609   -0.5270934752   -0.6040676841
H       -0.1365699783    0.2759608622    0.1134001386
H       -0.3945843748   -2.2672299251   -2.0219453382
C        0.4156319561    1.6013185826    1.5294783819
N        0.7442598167    2.3665149027    2.3496836403
6    
Image 2/11, Energy =  -169.0502557414 (+1.513 kcal/mol)
C       -0.3278522084   -1.4349873202   -1.3384348099
C       -0.3976177493   -0.4611632092   -0.6452787588
H       -0.3251088385    0.3703966917    0.0384206879
H       -0.2319698051   -2.2997777387   -1.9203835753
C        0.4208471825    1.5750293743    1.5102477512
N        0.8617014355    2.2505021984    2.3554287305
6    
Image 3/11, Energy =  -169.0466375217 (+3.784 kcal/mol)
C       -0.2991259778   -1.4076430575   -1.2938448235
C       -0.5087040971   -0.4000754523   -0.6840182180
H       -0.5220701694    0.4649052123   -0.0503201528
H       -0.0678629147   -2.2999869396   -1.7879371733
C        0.4279018038    1.5439291138    1.4712045622
N        0.9698613523    2.0988711504    2.3449157911
6    
Image 4/11, Energy =  -169.0421474783 (+6.601 kcal/mol)
C       -0.2672679937   -1.3674537065   -1.2280279145
C       -0.6051927737   -0.3396071818   -0.7193198575
H       -0.7216537281    0.5557756134   -0.1550227885
H        0.0933710078   -2.2646185998   -1.6245550187
C        0.4348959834    1.5094033694    1.4127909629
N        1.0658474650    1.9065005126    2.3141345876
6    
Image 5/11, Energy =  -169.0368099128 (+9.951 kcal/mol)
C       -0.2336297290   -1.3087370935   -1.1459058414
C       -0.6841319703   -0.2779043566   -0.7434131372
H       -0.9176074595    0.6391633195   -0.2704831985
H        0.2484031197   -2.1920992541   -1.4295904395
C        0.4463931194    1.4622946981    1.3361997805
N        1.1405728660    1.6772826776    2.2531928278
6    
Image 6/11, Energy =  -169.0298026137 (+14.348 kcal/mol)
C       -0.2049341056   -1.2318315061   -1.0582522673
C       -0.7328026021   -0.2084749461   -0.7455208530
H       -1.0958769119    0.7108308306   -0.3865301317
H        0.3884575934   -2.0800923398   -1.2073164866
C        0.4603105361    1.3745174348    1.2402221278
N        1.1848454587    1.4350505123    2.1573976360
6    
Image 7/11, Energy =  -169.0162983270 (+22.822 kcal/mol)
C       -0.2026330849   -1.1573123620   -0.9950449015
C       -0.7191737365   -0.1199317501   -0.6916529661
H       -1.2412916401    0.7612963145   -0.4882414209
H        0.5018006541   -1.9319006669   -0.9863299799
C        0.4694806413    1.2039034882    1.1211595113
N        1.1918171697    1.2439449827    2.0401097777
6    
Image 8/11, Energy =  -168.9960749581 (+35.512 kcal/mol)
C       -0.2403168789   -1.1072985332   -0.9834851453
C       -0.6227741959    0.0013885946   -0.5474882720
H       -1.3345481397    0.7786297042   -0.5680955910
H        0.5794177942   -1.7617804083   -0.7910609402
C        0.4622424043    0.9620210877    0.9837154067
N        1.1559790469    1.1270395325    1.9064145654
6    
Image 9/11, Energy =  -169.0133092282 (+24.697 kcal/mol)
C       -0.2672956372   -1.0812591644   -0.9949376437
C       -0.5135241403    0.0815314863   -0.3995591574
H       -1.3161701691    0.7740370422   -0.5634895727
H        0.5929024783   -1.6970095648   -0.7307153319
C        0.4136759261    0.8206781789    0.8887520041
N        1.0904115694    1.1020220005    1.7999497085
6    
Image 10/11, Energy =  -169.0437609545 (+5.589 kcal/mol)
C       -0.2721093513   -1.0384613434   -0.9953339881
C       -0.4664498990    0.1336943575   -0.3047184047
H       -1.3026915424    0.8069996864   -0.5503883163
H        0.6404231461   -1.5232274468   -0.5526624607
C        0.3524169885    0.6272448767    0.7650856657
N        1.0484106581    0.9937498643    1.6380174988
