6    
Image 0/11, Energy =  -169.0522692293 (+0.000 kcal/mol)
C       -0.3689809232   -1.4576547332   -1.3858823910
C       -0.1536196575   -0.5941379364   -0.5627748996
H        0.0498937432    0.2058682499    0.1931202386
H       -0.5557149982   -2.2230003307   -2.1042277546
C        0.4068909404    1.6172446315    1.5286738868
N        0.6215308952    2.4516801189    2.3310909145
6    
Image 1/11, Energy =  -169.0520552109 (+0.134 kcal/mol)
C       -0.3602044603   -1.4500406221   -1.3530027371
C       -0.2668365365   -0.5180739251   -0.6102464310
H       -0.1318263045    0.2709109419    0.1130246592
H       -0.3999071573   -2.2547204463   -2.0234759008
C        0.4445148658    1.5662849433    1.5412473374
N        0.7142596274    2.3856391123    2.3324530891
6    
Image 2/11, Energy =  -169.0489159034 (+2.104 kcal/mol)
C       -0.3399263890   -1.4355354461   -1.3270606743
C       -0.3855878912   -0.4568897268   -0.6445740909
H       -0.3134386520    0.3557106542    0.0518192653
H       -0.2456534836   -2.2775537470   -1.9386203507
C        0.4828471645    1.5034824744    1.5391785017
N        0.8017592673    2.3107857929    2.3192573576
6    
Image 3/11, Energy =  -169.0446322836 (+4.792 kcal/mol)
C       -0.3015753381   -1.4040334484   -1.2867205746
C       -0.4971270129   -0.4015057901   -0.6670945716
H       -0.5200261068    0.4547639486   -0.0356991492
H       -0.0856974169   -2.2795076420   -1.8153578524
C        0.5028944895    1.4460493405    1.4963671910
N        0.9015313996    2.1842335753    2.3085049449
6    
Image 4/11, Energy =  -169.0398188775 (+7.813 kcal/mol)
C       -0.2566141267   -1.3563737938   -1.2176836643
C       -0.5925567045   -0.3392650165   -0.7047078113
H       -0.7336422588    0.5469709992   -0.1443049407
H        0.0728710888   -2.2533971024   -1.6485702035
C        0.4977712162    1.4139654193    1.4161686349
N        1.0121707960    1.9880994915    2.2990979694
6    
Image 5/11, Energy =  -169.0344216399 (+11.200 kcal/mol)
C       -0.2169964004   -1.2980683877   -1.1334393515
C       -0.6663040294   -0.2713953493   -0.7242924612
H       -0.9444780981    0.6298430663   -0.2768660419
H        0.2290019444   -2.1809844204   -1.4454178028
C        0.4890156768    1.3845814129    1.3256117964
N        1.1097609023    1.7360236573    2.2544038487
6    
Image 6/11, Energy =  -169.0276534583 (+15.447 kcal/mol)
C       -0.1919585559   -1.2252617759   -1.0437134759
C       -0.7147071858   -0.2097584895   -0.7122805166
H       -1.1167865355    0.6945520498   -0.4004686659
H        0.3689927009   -2.0714372902   -1.2391423520
C        0.4884556636    1.3313801750    1.2277744005
N        1.1660039139    1.4805253213    2.1678305994
6    
Image 7/11, Energy =  -169.0159892445 (+22.766 kcal/mol)
C       -0.1927159656   -1.1546138114   -0.9599897768
C       -0.7139657539   -0.1266066449   -0.6637008867
H       -1.2404083988    0.7496119692   -0.5015146671
H        0.4918620569   -1.9296832628   -1.0232175284
C        0.4790906060    1.2297613351    1.1064495920
N        1.1761374380    1.2315304115    2.0419732502
6    
Image 8/11, Energy =  -168.9951528673 (+35.841 kcal/mol)
C       -0.2222906016   -1.1138392037   -0.9398145731
C       -0.6373970049   -0.0060456677   -0.5387108405
H       -1.3029472213    0.7775160583   -0.5734859546
H        0.5683965317   -1.7795583167   -0.8292475824
C        0.4495408523    1.0479738867    0.9757179689
N        1.1446974491    1.0739532356    1.9055409772
6    
Image 9/11, Energy =  -169.0201318361 (+20.167 kcal/mol)
C       -0.2679911435   -1.0691918830   -0.9619337008
C       -0.4938524320    0.1045560575   -0.3601221960
H       -1.3058744305    0.7684157552   -0.5755681182
H        0.5966388337   -1.6852830735   -0.7309281189
C        0.3977679741    0.8282975617    0.8536302176
N        1.0733112118    1.0532055925    1.7749219007
6    
Image 10/11, Energy =  -169.0437609545 (+5.339 kcal/mol)
C       -0.2721093513   -1.0384613434   -0.9953339881
C       -0.4664498990    0.1336943575   -0.3047184047
H       -1.3026915424    0.8069996864   -0.5503883163
H        0.6404231461   -1.5232274468   -0.5526624607
C        0.3524169885    0.6272448767    0.7650856657
N        1.0484106581    0.9937498643    1.6380174988
