6    
Image 0/11, Energy =  -169.0522692293 (+0.338 kcal/mol)
C       -0.3689809232   -1.4576547332   -1.3858823910
C       -0.1536196575   -0.5941379364   -0.5627748996
H        0.0498937432    0.2058682499    0.1931202386
H       -0.5557149982   -2.2230003307   -2.1042277546
C        0.4068909404    1.6172446315    1.5286738868
N        0.6215308952    2.4516801189    2.3310909145
6    
Image 1/11, Energy =  -169.0528073045 (+0.000 kcal/mol)
C       -0.3467732589   -1.4538758116   -1.3611563322
C       -0.2725719788   -0.5256901804   -0.6065274681
H       -0.1449397543    0.2888279832    0.1014476403
H       -0.3908361987   -2.2749821603   -2.0132327880
C        0.3798257054    1.6378995516    1.5117527155
N        0.7752955139    2.3278206143    2.3677162481
6    
Image 2/11, Energy =  -169.0507268724 (+1.305 kcal/mol)
C       -0.3202814052   -1.4403251099   -1.3277220554
C       -0.3889561420   -0.4573031093   -0.6471143632
H       -0.3369371500    0.3904103760    0.0186190855
H       -0.2243300859   -2.3098808627   -1.9023659234
C        0.3593238748    1.6463479490    1.4861992547
N        0.9111809372    2.1707507892    2.3723839964
6    
Image 3/11, Energy =  -169.0474649135 (+3.352 kcal/mol)
C       -0.2897661499   -1.4108347081   -1.2789537383
C       -0.4977605778   -0.3921128199   -0.6853173959
H       -0.5299971324    0.4884445962   -0.0726229013
H       -0.0589868221   -2.3098123810   -1.7614941144
C        0.3543599186    1.6358910262    1.4529984433
N        1.0221507493    1.9884243033    2.3453897185
6    
Image 4/11, Energy =  -169.0430733062 (+6.108 kcal/mol)
C       -0.2573668827   -1.3651082013   -1.2125755982
C       -0.5955405015   -0.3282867636   -0.7219914196
H       -0.7244815465    0.5784750587   -0.1749649982
H        0.1025124314   -2.2712887556   -1.5917591678
C        0.3663449621    1.5954680450    1.4091177978
N        1.1085314915    1.7907405932    2.2921733967
6    
Image 5/11, Energy =  -169.0373333663 (+9.710 kcal/mol)
C       -0.2263192938   -1.3007426446   -1.1337365638
C       -0.6790867200   -0.2642058840   -0.7496586868
H       -0.9202158079    0.6582548018   -0.2890463277
H        0.2586613523   -2.1900117097   -1.3926161500
C        0.3944999391    1.5089729276    1.3470982481
N        1.1724605318    1.5877324727    2.2179594809
6    
Image 6/11, Energy =  -169.0289643352 (+14.962 kcal/mol)
C       -0.2054979852   -1.2199461839   -1.0541561481
C       -0.7337090834   -0.1924686664   -0.7522412902
H       -1.1101720107    0.7262656226   -0.4108478943
H        0.4052124159   -2.0602709779   -1.1624453025
C        0.4301793242    1.3585308031    1.2554021824
N        1.2139873019    1.3878893573    2.1242884702
6    
Image 7/11, Energy =  -169.0125560873 (+25.258 kcal/mol)
C       -0.2157501156   -1.1479188340   -1.0075820500
C       -0.7144033403   -0.1014913339   -0.6845001316
H       -1.2629839170    0.7686279380   -0.5189907596
H        0.5203811422   -1.8881905949   -0.9310330920
C        0.4563484036    1.1381407108    1.1299018382
N        1.2164078557    1.2308321160    2.0122041847
6    
Image 8/11, Energy =  -168.9961622636 (+35.545 kcal/mol)
C       -0.2550933714   -1.1080867667   -1.0110247595
C       -0.6120411665    0.0056690700   -0.5328079832
H       -1.3341027624    0.7747399288   -0.5811877036
H        0.5794670946   -1.7316803138   -0.7647608164
C        0.4550428336    0.9107092341    0.9979353430
N        1.1667273958    1.1486488635    1.8918459276
6    
Image 9/11, Energy =  -169.0200231756 (+20.572 kcal/mol)
C       -0.2730607302   -1.0752617586   -1.0076882400
C       -0.5040894503    0.0914188386   -0.3793207135
H       -1.3173989957    0.7733116450   -0.5733518651
H        0.5984903789   -1.6672095461   -0.6991752628
C        0.4046848787    0.7773840101    0.8847998149
N        1.0913739656    1.1003568088    1.7747362490
6    
Image 10/11, Energy =  -169.0437609545 (+5.677 kcal/mol)
C       -0.2721093513   -1.0384613434   -0.9953339881
C       -0.4664498990    0.1336943575   -0.3047184047
H       -1.3026915424    0.8069996864   -0.5503883163
H        0.6404231461   -1.5232274468   -0.5526624607
C        0.3524169885    0.6272448767    0.7650856657
N        1.0484106581    0.9937498643    1.6380174988
