6    
Image 0/11, Energy =  -169.0522692293 (+0.292 kcal/mol)
C       -0.3689809232   -1.4576547332   -1.3858823910
C       -0.1536196575   -0.5941379364   -0.5627748996
H        0.0498937432    0.2058682499    0.1931202386
H       -0.5557149982   -2.2230003307   -2.1042277546
C        0.4068909404    1.6172446315    1.5286738868
N        0.6215308952    2.4516801189    2.3310909145
6    
Image 1/11, Energy =  -169.0527344201 (+0.000 kcal/mol)
C       -0.3523036948   -1.4520665428   -1.3638496011
C       -0.2749732008   -0.5265627677   -0.6065345857
H       -0.1393508492    0.2796647562    0.1107689076
H       -0.3920138215   -2.2694601417   -2.0202357361
C        0.4041523098    1.6133118653    1.5234577019
N        0.7544892981    2.3551127958    2.3563933508
6    
Image 2/11, Energy =  -169.0504958124 (+1.405 kcal/mol)
C       -0.3296238244   -1.4382083034   -1.3360519674
C       -0.3945666053   -0.4606878537   -0.6484542356
H       -0.3294223485    0.3738971232    0.0340031137
H       -0.2272757670   -2.3028538297   -1.9167013285
C        0.4027582452    1.5977913370    1.5038245746
N        0.8781303216    2.2300615190    2.3633798659
6    
Image 3/11, Energy =  -169.0470321607 (+3.578 kcal/mol)
C       -0.3001011652   -1.4102430994   -1.2919698117
C       -0.5063835528   -0.4001455147   -0.6860426904
H       -0.5245938075    0.4689584421   -0.0552897652
H       -0.0631911495   -2.3031080068   -1.7827611486
C        0.4069269957    1.5734969260    1.4666106405
N        0.9873426593    2.0710412756    2.3494527726
6    
Image 4/11, Energy =  -169.0426307909 (+6.340 kcal/mol)
C       -0.2674183505   -1.3684464125   -1.2276896613
C       -0.6033284256   -0.3389055099   -0.7213336240
H       -0.7198353251    0.5599099075   -0.1581277907
H        0.0964534782   -2.2681307277   -1.6168863657
C        0.4142459486    1.5407981905    1.4108399898
N        1.0798826172    1.8747745817    2.3131974092
6    
Image 5/11, Energy =  -169.0371907175 (+9.754 kcal/mol)
C       -0.2340909797   -1.3084252523   -1.1472951816
C       -0.6820265024   -0.2755781298   -0.7461793741
H       -0.9144907012    0.6432184258   -0.2725287222
H        0.2507387778   -2.1944488296   -1.4193024583
C        0.4300887041    1.4849015851    1.3387886854
N        1.1497806333    1.6503321918    2.2465170522
6    
Image 6/11, Energy =  -169.0298004629 (+14.391 kcal/mol)
C       -0.2076583268   -1.2311508871   -1.0630790573
C       -0.7294444485   -0.2065623621   -0.7474027986
H       -1.0951196494    0.7132797864   -0.3871289783
H        0.3902147718   -2.0804065666   -1.1997443829
C        0.4512797551    1.3766267501    1.2458202023
N        1.1907278870    1.4282132697    2.1515350355
6    
Image 7/11, Energy =  -169.0155030116 (+23.363 kcal/mol)
C       -0.2072094452   -1.1578736459   -1.0015559331
C       -0.7181054575   -0.1156835655   -0.6916714665
H       -1.2463903328    0.7613989879   -0.4930138935
H        0.5055465291   -1.9235347354   -0.9765915740
C        0.4681472516    1.1861484684    1.1251966133
N        1.1980114557    1.2495444920    2.0376362942
6    
Image 8/11, Energy =  -168.9959612409 (+35.626 kcal/mol)
C       -0.2482530419   -1.1052610209   -0.9890501396
C       -0.6199050438    0.0115616100   -0.5409564549
H       -1.3478629863    0.7773541379   -0.5837639741
H        0.5881377638   -1.7334339208   -0.7625964713
C        0.4666522682    0.9290810558    0.9797166415
N        1.1612310718    1.1206981113    1.8966504155
6    
Image 9/11, Energy =  -169.0143686948 (+24.075 kcal/mol)
C       -0.2708259174   -1.0812750246   -0.9985349833
C       -0.5163610354    0.0858748854   -0.4003537661
H       -1.3275918619    0.7738099817   -0.5722092299
H        0.6003396274   -1.6821255038   -0.7138550967
C        0.4176524796    0.8064474782    0.8881646372
N        1.0967867257    1.0972681775    1.7967884652
6    
Image 10/11, Energy =  -169.0437609545 (+5.631 kcal/mol)
C       -0.2721093513   -1.0384613434   -0.9953339881
C       -0.4664498990    0.1336943575   -0.3047184047
H       -1.3026915424    0.8069996864   -0.5503883163
H        0.6404231461   -1.5232274468   -0.5526624607
C        0.3524169885    0.6272448767    0.7650856657
N        1.0484106581    0.9937498643    1.6380174988
