6    
Image 0/11, Energy =  -169.0522692293 (+0.180 kcal/mol)
C       -0.3689809232   -1.4576547332   -1.3858823910
C       -0.1536196575   -0.5941379364   -0.5627748996
H        0.0498937432    0.2058682499    0.1931202386
H       -0.5557149982   -2.2230003307   -2.1042277546
C        0.4068909404    1.6172446315    1.5286738868
N        0.6215308952    2.4516801189    2.3310909145
6    
Image 1/11, Energy =  -169.0525562912 (+0.000 kcal/mol)
C       -0.3498934212   -1.4467055457   -1.3694911342
C       -0.2794507815   -0.5279942013   -0.6015671725
H       -0.1333307585    0.2744821844    0.1157555150
H       -0.3983376802   -2.2662393525   -2.0238504423
C        0.4276312065    1.5892717667    1.5368619487
N        0.7333814692    2.3771851391    2.3422913162
6    
Image 2/11, Energy =  -169.0499259232 (+1.651 kcal/mol)
C       -0.3258763547   -1.4323396125   -1.3397992222
C       -0.3999404442   -0.4614102352   -0.6419296268
H       -0.3206328197    0.3677214200    0.0440773151
H       -0.2374012532   -2.2960552899   -1.9250852484
C        0.4406811329    1.5513790891    1.5175483256
N        0.8431697554    2.2707046167    2.3451884772
6    
Image 3/11, Energy =  -169.0461679132 (+4.009 kcal/mol)
C       -0.2976037632   -1.4070178621   -1.2913119132
C       -0.5099977439   -0.3974031359   -0.6846974426
H       -0.5190605983    0.4622911081   -0.0430541451
H       -0.0733367924   -2.2970480109   -1.7952978493
C        0.4499071027    1.5136517479    1.4769463856
N        0.9500918100    2.1255261725    2.3374149624
6    
Image 4/11, Energy =  -169.0415484026 (+6.908 kcal/mol)
C       -0.2640076767   -1.3666462206   -1.2252901710
C       -0.6079697101   -0.3382293619   -0.7180459698
H       -0.7249236712    0.5535240076   -0.1508558716
H        0.0898796874   -2.2623036832   -1.6333753668
C        0.4574974454    1.4764122717    1.4161296384
N        1.0495239182    1.9372429706    2.3114377211
6    
Image 5/11, Energy =  -169.0363101516 (+10.195 kcal/mol)
C       -0.2284206887   -1.3066946831   -1.1412746298
C       -0.6872278416   -0.2799438811   -0.7412618384
H       -0.9215914504    0.6352425443   -0.2690636815
H        0.2436564330   -2.1895100214   -1.4400119351
C        0.4637392491    1.4369294705    1.3345879904
N        1.1298442629    1.7039765605    2.2570240763
6    
Image 6/11, Energy =  -169.0296515414 (+14.373 kcal/mol)
C       -0.1984896735   -1.2304936643   -1.0487156174
C       -0.7375926091   -0.2103010314   -0.7433860169
H       -1.0978145817    0.7077698587   -0.3881732219
H        0.3849662535   -2.0781334080   -1.2168616907
C        0.4700468875    1.3673703517    1.2348427580
N        1.1788836835    1.4437878811    2.1622938003
6    
Image 7/11, Energy =  -169.0168072311 (+22.433 kcal/mol)
C       -0.1959228874   -1.1560783730   -0.9851218080
C       -0.7238559720   -0.1218193427   -0.6886895954
H       -1.2382264025    0.7603936283   -0.4899834828
H        0.4992048236   -1.9333562493   -0.9919410512
C        0.4718637300    1.2182403730    1.1154232803
N        1.1869367102    1.2326199541    2.0403126556
6    
Image 8/11, Energy =  -168.9964882090 (+35.183 kcal/mol)
C       -0.2329182060   -1.1083902367   -0.9772566012
C       -0.6250666194   -0.0119236485   -0.5526418807
H       -1.3178243089    0.7770279336   -0.5546693470
H        0.5676184388   -1.7865814589   -0.8198835824
C        0.4569745374    0.9993277220    0.9884308812
N        1.1512161917    1.1305396771    1.9160205394
6    
Image 9/11, Energy =  -169.0133237795 (+24.619 kcal/mol)
C       -0.2642047797   -1.0815958846   -0.9902631101
C       -0.5115336989    0.0826474502   -0.3949670210
H       -1.3110552348    0.7791909222   -0.5589099606
H        0.5929176020   -1.7070342181   -0.7387655946
C        0.4085478337    0.8286887275    0.8843806345
N        1.0853283050    1.0981029858    1.7985250383
6    
Image 10/11, Energy =  -169.0437609545 (+5.519 kcal/mol)
C       -0.2721093513   -1.0384613434   -0.9953339881
C       -0.4664498990    0.1336943575   -0.3047184047
H       -1.3026915424    0.8069996864   -0.5503883163
H        0.6404231461   -1.5232274468   -0.5526624607
C        0.3524169885    0.6272448767    0.7650856657
N        1.0484106581    0.9937498643    1.6380174988
