6    
Image 0/11, Energy =  -169.0522692293 (+0.156 kcal/mol)
C       -0.3689809232   -1.4576547332   -1.3858823910
C       -0.1536196575   -0.5941379364   -0.5627748996
H        0.0498937432    0.2058682499    0.1931202386
H       -0.5557149982   -2.2230003307   -2.1042277546
C        0.4068909404    1.6172446315    1.5286738868
N        0.6215308952    2.4516801189    2.3310909145
6    
Image 1/11, Energy =  -169.0525184134 (+0.000 kcal/mol)
C       -0.3496780719   -1.4462827753   -1.3692463693
C       -0.2793038635   -0.5282188124   -0.6026741835
H       -0.1330888466    0.2745999827    0.1170974064
H       -0.3993177427   -2.2660019723   -2.0244067327
C        0.4307594189    1.5865378382    1.5388788648
N        0.7306291367    2.3793657346    2.3403510439
6    
Image 2/11, Energy =  -169.0498369473 (+1.683 kcal/mol)
C       -0.3262704490   -1.4320497232   -1.3391324860
C       -0.3992609151   -0.4613849139   -0.6426410238
H       -0.3200152648    0.3668507894    0.0467311744
H       -0.2386576318   -2.2946803346   -1.9266176730
C        0.4461823467    1.5456383552    1.5195533748
N        0.8380219301    2.2756258142    2.3421066516
6    
Image 3/11, Energy =  -169.0460277092 (+4.073 kcal/mol)
C       -0.2973090998   -1.4079962673   -1.2899166653
C       -0.5097982585   -0.3961619945   -0.6853508050
H       -0.5182430223    0.4618737340   -0.0409348839
H       -0.0749106485   -2.2956672105   -1.7974227260
C        0.4555724499    1.5060779100    1.4787702659
N        0.9446885953    2.1318738449    2.3348548158
6    
Image 4/11, Energy =  -169.0413677891 (+6.997 kcal/mol)
C       -0.2628543495   -1.3649514011   -1.2231166352
C       -0.6085934317   -0.3395162333   -0.7192430271
H       -0.7258874082    0.5535423617   -0.1491278940
H        0.0887443797   -2.2618339663   -1.6358631672
C        0.4634503045    1.4681909857    1.4171851333
N        1.0451405100    1.9445682347    2.3101655708
6    
Image 5/11, Energy =  -169.0361675811 (+10.260 kcal/mol)
C       -0.2254728640   -1.3064632685   -1.1397177576
C       -0.6888910439   -0.2796676607   -0.7409652452
H       -0.9228956694    0.6351388802   -0.2683337447
H        0.2421288165   -2.1894820561   -1.4426828278
C        0.4682010662    1.4303943487    1.3343958192
N        1.1269296599    1.7100797457    2.2573037389
6    
Image 6/11, Energy =  -169.0296009989 (+14.381 kcal/mol)
C       -0.1961258177   -1.2297717276   -1.0457750895
C       -0.7390288742   -0.2109490485   -0.7425889394
H       -1.0991519951    0.7084529803   -0.3885047078
H        0.3844116796   -2.0787682832   -1.2200173612
C        0.4727049412    1.3644644777    1.2337660503
N        1.1771900257    1.4465715904    2.1631200560
6    
Image 7/11, Energy =  -169.0168177569 (+22.403 kcal/mol)
C       -0.1932544026   -1.1570829404   -0.9823537151
C       -0.7265065360   -0.1206724772   -0.6868927419
H       -1.2383330948    0.7610876696   -0.4912659901
H        0.4995723706   -1.9335705339   -0.9932083967
C        0.4727713208    1.2210556232    1.1138841851
N        1.1857503417    1.2291826467    2.0398366534
6    
Image 8/11, Energy =  -168.9965747288 (+35.105 kcal/mol)
C       -0.2316450874   -1.1083778323   -0.9756046654
C       -0.6253950127   -0.0145584491   -0.5527864982
H       -1.3148412626    0.7769897381   -0.5531708348
H        0.5657450805   -1.7907827909   -0.8246489966
C        0.4561833606    1.0077461989    0.9891897320
N        1.1499529511    1.1289831319    1.9170212670
6    
Image 9/11, Energy =  -169.0136709916 (+24.377 kcal/mol)
C       -0.2643582719   -1.0820272037   -0.9901264327
C       -0.5104927037    0.0849451658   -0.3920077910
H       -1.3110122576    0.7798931521   -0.5583911008
H        0.5941613668   -1.7090092095   -0.7397042957
C        0.4075432995    0.8299114697    0.8826524657
N        1.0841585885    1.0962866058    1.7975771397
6    
Image 10/11, Energy =  -169.0437609545 (+5.495 kcal/mol)
C       -0.2721093513   -1.0384613434   -0.9953339881
C       -0.4664498990    0.1336943575   -0.3047184047
H       -1.3026915424    0.8069996864   -0.5503883163
H        0.6404231461   -1.5232274468   -0.5526624607
C        0.3524169885    0.6272448767    0.7650856657
N        1.0484106581    0.9937498643    1.6380174988
