6    
Image 0/11, Energy =  -169.0522692293 (+0.266 kcal/mol)
C       -0.3689809232   -1.4576547332   -1.3858823910
C       -0.1536196575   -0.5941379364   -0.5627748996
H        0.0498937432    0.2058682499    0.1931202386
H       -0.5557149982   -2.2230003307   -2.1042277546
C        0.4068909404    1.6172446315    1.5286738868
N        0.6215308952    2.4516801189    2.3310909145
6    
Image 1/11, Energy =  -169.0526926548 (+0.000 kcal/mol)
C       -0.3429492996   -1.4533227694   -1.3563506033
C       -0.2705858201   -0.5205641022   -0.6063101893
H       -0.1472262892    0.2999024059    0.0952658403
H       -0.3892262415   -2.2775161521   -2.0037796737
C        0.3645136762    1.6463799218    1.5021862244
N        0.7854739699    2.3051206827    2.3689884003
6    
Image 2/11, Energy =  -169.0505107318 (+1.369 kcal/mol)
C       -0.3137022159   -1.4375609056   -1.3165242833
C       -0.3854268748   -0.4471328328   -0.6476054983
H       -0.3422152079    0.4092274909    0.0083645923
H       -0.2195848306   -2.3122550566   -1.8841193636
C        0.3330603720    1.6628472550    1.4736549629
N        0.9278687608    2.1248740268    2.3662296181
6    
Image 3/11, Energy =  -169.0471377646 (+3.486 kcal/mol)
C       -0.2810960771   -1.4046236973   -1.2619740510
C       -0.4947829986   -0.3765211007   -0.6881521469
H       -0.5398240346    0.5116727375   -0.0869425229
H       -0.0496654576   -2.3093230859   -1.7342364303
C        0.3238583702    1.6532699655    1.4448077088
N        1.0415102486    1.9255251360    2.3264974790
6    
Image 4/11, Energy =  -169.0425139889 (+6.387 kcal/mol)
C       -0.2467400695   -1.3531413220   -1.1930342152
C       -0.5962631254   -0.3093330888   -0.7263713473
H       -0.7422055491    0.6030325622   -0.1944616466
H        0.1177669887   -2.2645048989   -1.5548023090
C        0.3384568390    1.6022946953    1.4072439212
N        1.1289849538    1.7216520266    2.2614256189
6    
Image 5/11, Energy =  -169.0365110116 (+10.154 kcal/mol)
C       -0.2145762381   -1.2837067547   -1.1137685645
C       -0.6817660197   -0.2447710547   -0.7545602874
H       -0.9425341049    0.6803480316   -0.3121168526
H        0.2760625228   -2.1760715010   -1.3507491765
C        0.3694989781    1.4979271796    1.3499468183
N        1.1933148894    1.5262740568    2.1812480608
6    
Image 6/11, Energy =  -169.0279665625 (+15.516 kcal/mol)
C       -0.1956232732   -1.2050137665   -1.0393893738
C       -0.7327289909   -0.1779210351   -0.7526910089
H       -1.1252609449    0.7399661935   -0.4285560921
H        0.4154949637   -2.0470017609   -1.1351691677
C        0.4073434008    1.3312357931    1.2624107494
N        1.2307748817    1.3587345607    2.0933948748
6    
Image 7/11, Energy =  -169.0120441507 (+25.507 kcal/mol)
C       -0.2101986072   -1.1421635778   -1.0048155402
C       -0.7111709156   -0.0970129930   -0.6814377356
H       -1.2622687059    0.7736988202   -0.5244184076
H        0.5177852188   -1.8913227125   -0.9333231535
C        0.4407064902    1.1146870159    1.1439008971
N        1.2251465040    1.2421134307    2.0000939120
6    
Image 8/11, Energy =  -168.9962095846 (+35.444 kcal/mol)
C       -0.2521018949   -1.1071225914   -1.0124981785
C       -0.6147168895    0.0007658408   -0.5348183670
H       -1.3285271524    0.7771608146   -0.5801567446
H        0.5733087499   -1.7452329057   -0.7799527776
C        0.4535631422    0.9029205674    1.0129934483
N        1.1684740150    1.1715082933    1.8944325850
6    
Image 9/11, Energy =  -169.0185481864 (+21.426 kcal/mol)
C       -0.2719625516   -1.0757314587   -1.0098528780
C       -0.5069210254    0.0856166830   -0.3812102048
H       -1.3135117481    0.7752545292   -0.5708749214
H        0.5941009964   -1.6771003016   -0.7120056808
C        0.4053047108    0.7756581993    0.8955912835
N        1.0929895856    1.1163023882    1.7783524219
6    
Image 10/11, Energy =  -169.0437609545 (+5.605 kcal/mol)
C       -0.2721093513   -1.0384613434   -0.9953339881
C       -0.4664498990    0.1336943575   -0.3047184047
H       -1.3026915424    0.8069996864   -0.5503883163
H        0.6404231461   -1.5232274468   -0.5526624607
C        0.3524169885    0.6272448767    0.7650856657
N        1.0484106581    0.9937498643    1.6380174988
