6    
Image 0/11, Energy =  -169.0522692293 (+0.375 kcal/mol)
C       -0.3689809232   -1.4576547332   -1.3858823910
C       -0.1536196575   -0.5941379364   -0.5627748996
H        0.0498937432    0.2058682499    0.1931202386
H       -0.5557149982   -2.2230003307   -2.1042277546
C        0.4068909404    1.6172446315    1.5286738868
N        0.6215308952    2.4516801189    2.3310909145
6    
Image 1/11, Energy =  -169.0528661679 (+0.000 kcal/mol)
C       -0.3434188015   -1.4587215829   -1.3583658249
C       -0.2651769357   -0.5241820277   -0.6113059372
H       -0.1467035392    0.2985430334    0.0866619085
H       -0.3947332671   -2.2838495946   -2.0054945429
C        0.3484794710    1.6665664809    1.5096973718
N        0.8015532149    2.3016436473    2.3788069731
6    
Image 2/11, Energy =  -169.0507406629 (+1.334 kcal/mol)
C       -0.3130595662   -1.4426550821   -1.3179226662
C       -0.3754577345   -0.4482831077   -0.6526406507
H       -0.3396422083    0.4128095154   -0.0016987100
H       -0.2282916960   -2.3221378183   -1.8829138772
C        0.3040257333    1.6956887001    1.4866029786
N        0.9524255021    2.1045777722    2.3685728261
6    
Image 3/11, Energy =  -169.0473251403 (+3.477 kcal/mol)
C       -0.2780879442   -1.4059784598   -1.2591291992
C       -0.4852339341   -0.3707127353   -0.6942548275
H       -0.5424073289    0.5232965344   -0.1016350202
H       -0.0533756951   -2.3193289436   -1.7222697702
C        0.2853733696    1.6945442701    1.4664917768
N        1.0737315174    1.8781791882    2.3107970319
6    
Image 4/11, Energy =  -169.0428694257 (+6.273 kcal/mol)
C       -0.2412013418   -1.3524276207   -1.1877255052
C       -0.5887278624   -0.3005874795   -0.7358632966
H       -0.7504942986    0.6172771815   -0.2169841276
H        0.1175038079   -2.2737491129   -1.5355858670
C        0.2976979000    1.6529536696    1.4452414743
N        1.1652217901    1.6565332724    2.2309173897
6    
Image 5/11, Energy =  -169.0373444420 (+9.740 kcal/mol)
C       -0.2064924553   -1.2810414575   -1.1059669287
C       -0.6812275541   -0.2364815203   -0.7716521631
H       -0.9590695527    0.6931835481   -0.3465839365
H        0.2790464992   -2.1830985701   -1.3255576072
C        0.3340479934    1.5516924645    1.4029355583
N        1.2336950529    1.4557456301    2.1468252811
6    
Image 6/11, Energy =  -169.0295816384 (+14.611 kcal/mol)
C       -0.1855296003   -1.1959581402   -1.0236617065
C       -0.7466052042   -0.1704585550   -0.7791150164
H       -1.1459431913    0.7520996532   -0.4681202188
H        0.4246359433   -2.0434930476   -1.0980454156
C        0.3825953151    1.3729899930    1.3052975795
N        1.2708468390    1.2848201849    2.0636448231
6    
Image 7/11, Energy =  -169.0138365084 (+24.491 kcal/mol)
C       -0.2011695127   -1.1310690737   -0.9896262988
C       -0.7294796490   -0.0897190987   -0.7076620265
H       -1.2774211070    0.7869050767   -0.5596835261
H        0.5259868373   -1.8789853425   -0.8903377138
C        0.4232554520    1.1289975541    1.1661168135
N        1.2588281210    1.1838709881    1.9811927992
6    
Image 8/11, Energy =  -168.9961773961 (+35.573 kcal/mol)
C       -0.2504070377   -1.1026244992   -1.0116449811
C       -0.6169746796    0.0073782755   -0.5403122512
H       -1.3248945967    0.7883305541   -0.6013568624
H        0.5686226168   -1.7399189999   -0.7533989468
C        0.4404999554    0.9005091159    1.0207432646
N        1.1831538355    1.1463256779    1.8859699178
6    
Image 9/11, Energy =  -169.0167555696 (+22.660 kcal/mol)
C       -0.2705565277   -1.0735666805   -1.0106179590
C       -0.5088427153    0.0878779469   -0.3873250850
H       -1.3085991496    0.7818402251   -0.5896811519
H        0.5834277966   -1.6879070344   -0.7048363604
C        0.4009587418    0.7806841154    0.9089286423
N        1.1036119290    1.1110715387    1.7835320450
6    
Image 10/11, Energy =  -169.0437609544 (+5.714 kcal/mol)
C       -0.2721093513   -1.0384613434   -0.9953339881
C       -0.4664498990    0.1336943575   -0.3047184047
H       -1.3026915424    0.8069996864   -0.5503883163
H        0.6404231461   -1.5232274468   -0.5526624607
C        0.3524169885    0.6272448767    0.7650856657
N        1.0484106581    0.9937498643    1.6380174988
