6    
Image 0/11, Energy =  -169.0522692293 (+0.000 kcal/mol)
C       -0.3689809232   -1.4576547332   -1.3858823910
C       -0.1536196575   -0.5941379364   -0.5627748996
H        0.0498937432    0.2058682499    0.1931202386
H       -0.5557149982   -2.2230003307   -2.1042277546
C        0.4068909404    1.6172446315    1.5286738868
N        0.6215308952    2.4516801189    2.3310909145
6    
Image 1/11, Energy =  -169.0494458641 (+1.772 kcal/mol)
C       -0.3598214395   -1.4444410513   -1.3698202997
C       -0.3053371828   -0.5397207081   -0.5608488706
H       -0.0820506813    0.3193123725    0.0954120905
H       -0.3959124085   -2.2642142798   -2.0290489181
C        0.4371306128    1.5558358474    1.5400768424
N        0.7059911087    2.3732278179    2.3242291543
6    
Image 2/11, Energy =  -169.0456744501 (+4.138 kcal/mol)
C       -0.3273339692   -1.4234504119   -1.3491749314
C       -0.4196675615   -0.4887105118   -0.5890861695
H       -0.2909841973    0.4081193684    0.0135830809
H       -0.2463647928   -2.2890026283   -1.9453504709
C        0.4953271578    1.4700076643    1.5681546608
N        0.7890233697    2.3230365202    2.3018738337
6    
Image 3/11, Energy =  -169.0429377956 (+5.856 kcal/mol)
C       -0.2993167694   -1.3933689785   -1.3169291475
C       -0.4927302206   -0.4255689537   -0.6297052995
H       -0.5329906733    0.4551430935   -0.0173162316
H       -0.0930920357   -2.2774882112   -1.8366362799
C        0.5539453460    1.4081257632    1.5208645284
N        0.8641843546    2.2331572809    2.2797224234
6    
Image 4/11, Energy =  -169.0353249661 (+10.633 kcal/mol)
C       -0.2807643551   -1.3584531624   -1.2542895488
C       -0.5269810810   -0.3383578603   -0.6419331442
H       -0.7507455290    0.5724903003   -0.1457650928
H        0.0661429775   -2.2578057851   -1.6476915305
C        0.5064906526    1.3898112200    1.4077020887
N        0.9858573360    1.9923152840    2.2819772208
6    
Image 5/11, Energy =  -169.0283686717 (+14.998 kcal/mol)
C       -0.2570586179   -1.3024057525   -1.1683397165
C       -0.5854251498   -0.2527832885   -0.6633987092
H       -0.9899084206    0.6579701146   -0.2911791054
H        0.2434347650   -2.1975557792   -1.4375981874
C        0.4923853642    1.3595349104    1.3195941984
N        1.0965720482    1.7352397876    2.2409215211
6    
Image 6/11, Energy =  -169.0209392365 (+19.660 kcal/mol)
C       -0.2393608076   -1.2444253944   -1.0774626951
C       -0.6320554104   -0.1764273902   -0.6696277546
H       -1.1767736289    0.7064226427   -0.3945028564
H        0.3930859496   -2.0995378591   -1.2495293074
C        0.4966343909    1.3083782191    1.2277072359
N        1.1584695064    1.5055897817    2.1634153771
6    
Image 7/11, Energy =  -169.0102242086 (+26.384 kcal/mol)
C       -0.2317740448   -1.1823253729   -0.9806919957
C       -0.6513753718   -0.1055279028   -0.6133418302
H       -1.2738246362    0.7612829244   -0.5019586015
H        0.5093371213   -1.9654300232   -1.0633680602
C        0.4806590063    1.2264039429    1.1113521000
N        1.1669779233    1.2655964300    2.0480083811
6    
Image 8/11, Energy =  -168.9930678548 (+37.149 kcal/mol)
C       -0.2468704132   -1.1221424311   -0.8921494878
C       -0.6234211963   -0.0037101998   -0.5122536607
H       -1.3238273056    0.8097191580   -0.5970570116
H        0.6119718700   -1.7928373009   -0.8550496592
C        0.4434216648    1.0821593244    0.9650804221
N        1.1387253783    1.0268114552    1.8914293959
6    
Image 9/11, Energy =  -169.0174047677 (+21.878 kcal/mol)
C       -0.2773227295   -1.0897249490   -0.9028551939
C       -0.5234101476    0.1218230323   -0.3717762448
H       -1.3135576337    0.8325506338   -0.6333962396
H        0.6556282890   -1.6502847781   -0.6743920878
C        0.3730258541    0.8386968393    0.8359470559
N        1.0856363658    0.9469392191    1.7464727088
6    
Image 10/11, Energy =  -169.0437609545 (+5.339 kcal/mol)
C       -0.2721093513   -1.0384613434   -0.9953339881
C       -0.4664498990    0.1336943575   -0.3047184047
H       -1.3026915424    0.8069996864   -0.5503883163
H        0.6404231461   -1.5232274468   -0.5526624607
C        0.3524169885    0.6272448767    0.7650856657
N        1.0484106581    0.9937498643    1.6380174988
