6    
Image 0/11, Energy =  -169.0522692293 (+0.000 kcal/mol)
C       -0.3689809232   -1.4576547332   -1.3858823910
C       -0.1536196575   -0.5941379364   -0.5627748996
H        0.0498937432    0.2058682499    0.1931202386
H       -0.5557149982   -2.2230003307   -2.1042277546
C        0.4068909404    1.6172446315    1.5286738868
N        0.6215308952    2.4516801189    2.3310909145
6    
Image 1/11, Energy =  -169.0455110327 (+4.241 kcal/mol)
C       -0.3590592527   -1.4496957264   -1.3794755491
C       -0.3124977147   -0.5340903524   -0.5446179526
H       -0.0745347549    0.3274769935    0.0932206389
H       -0.3952813929   -2.2697503115   -2.0325088529
C        0.4368262948    1.5579814307    1.5433766579
N        0.7045468292    2.3680779658    2.3200050563
6    
Image 2/11, Energy =  -169.0424398103 (+6.168 kcal/mol)
C       -0.3240622408   -1.4247571746   -1.3564492978
C       -0.4265550736   -0.4882611490   -0.5761760916
H       -0.2893112099    0.4183510707    0.0086256125
H       -0.2451646682   -2.2946208079   -1.9473468898
C        0.4983558375    1.4724330138    1.5766436600
N        0.7867373583    2.3168550475    2.2947030101
6    
Image 3/11, Energy =  -169.0411684062 (+6.966 kcal/mol)
C       -0.2982761851   -1.3939412849   -1.3221047079
C       -0.4937765497   -0.4227963243   -0.6225437511
H       -0.5339907891    0.4528587237   -0.0150048631
H       -0.0937797193   -2.2801605012   -1.8410450249
C        0.5619567207    1.4108111250    1.5292667317
N        0.8578665265    2.2332282539    2.2714316095
6    
Image 4/11, Energy =  -169.0264997273 (+16.171 kcal/mol)
C       -0.2807206613   -1.3722564903   -1.2668888942
C       -0.5237509098   -0.3187869726   -0.6229445357
H       -0.7522818088    0.5720383190   -0.1490790417
H        0.0666223072   -2.2593978304   -1.6469931885
C        0.5073607008    1.3891653465    1.4078975784
N        0.9827703725    1.9892376273    2.2780080774
6    
Image 5/11, Energy =  -169.0252222579 (+16.972 kcal/mol)
C       -0.2626049374   -1.3066023748   -1.1762835251
C       -0.5771351364   -0.2453988629   -0.6523099720
H       -0.9968515256    0.6668341307   -0.2907940199
H        0.2491025326   -2.2071134663   -1.4390627371
C        0.4951540469    1.3592441198    1.3235036967
N        1.0923350126    1.7330364464    2.2349465616
6    
Image 6/11, Energy =  -169.0160202113 (+22.747 kcal/mol)
C       -0.2497984231   -1.2460594832   -1.0820638652
C       -0.6183687963   -0.1734767326   -0.6661396615
H       -1.1907604851    0.7182987264   -0.3897533988
H        0.4038117154   -2.1125948127   -1.2522762573
C        0.5020902826    1.3079472709    1.2345244702
N        1.1530257063    1.5058850313    2.1557087119
6    
Image 7/11, Energy =  -169.0050875070 (+29.607 kcal/mol)
C       -0.2418817079   -1.1846683907   -0.9856933099
C       -0.6391158904   -0.1053316885   -0.6058875665
H       -1.2852485385    0.7735351201   -0.5008977882
H        0.5198785585   -1.9779518160   -1.0675120457
C        0.4857083742    1.2260078818    1.1192472662
N        1.1606592022    1.2684088890    2.0407434399
6    
Image 8/11, Energy =  -168.9892529707 (+39.543 kcal/mol)
C       -0.2528547370   -1.1272151224   -0.8895821351
C       -0.6187741693   -0.0025870583   -0.5064315197
H       -1.3329494254    0.8205879770   -0.5999805576
H        0.6232364451   -1.8000443041   -0.8589415336
C        0.4492967800    1.0866375329    0.9728882943
N        1.1320451036    1.0226209795    1.8820474512
6    
Image 9/11, Energy =  -169.0143713212 (+23.781 kcal/mol)
C       -0.2767796631   -1.0962201558   -0.8952199384
C       -0.5294402253    0.1236344709   -0.3761665282
H       -1.3138839495    0.8428925935   -0.6408245525
H        0.6626815586   -1.6450864052   -0.6672114568
C        0.3748290265    0.8429021279    0.8436206530
N        1.0825932514    0.9318773655    1.7358018220
6    
Image 10/11, Energy =  -169.0437609545 (+5.339 kcal/mol)
C       -0.2721093513   -1.0384613434   -0.9953339881
C       -0.4664498990    0.1336943575   -0.3047184047
H       -1.3026915424    0.8069996864   -0.5503883163
H        0.6404231461   -1.5232274468   -0.5526624607
C        0.3524169885    0.6272448767    0.7650856657
N        1.0484106581    0.9937498643    1.6380174988
