6    
Image 0/11, Energy =  -169.0522692293 (+0.000 kcal/mol)
C       -0.3689809232   -1.4576547332   -1.3858823910
C       -0.1536196575   -0.5941379364   -0.5627748996
H        0.0498937432    0.2058682499    0.1931202386
H       -0.5557149982   -2.2230003307   -2.1042277546
C        0.4068909404    1.6172446315    1.5286738868
N        0.6215308952    2.4516801189    2.3310909145
6    
Image 1/11, Energy =  -169.0519705678 (+0.187 kcal/mol)
C       -0.3629148728   -1.4489297757   -1.3545514310
C       -0.2749178898   -0.5263399954   -0.5985080753
H       -0.1173401352    0.2818421780    0.1032890856
H       -0.3977238033   -2.2489306820   -2.0195357245
C        0.4433896263    1.5614983703    1.5406425009
N        0.7095070940    2.3808599078    2.3286636554
6    
Image 2/11, Energy =  -169.0484130836 (+2.420 kcal/mol)
C       -0.3381683114   -1.4326393603   -1.3318402835
C       -0.3935645279   -0.4696243274   -0.6291768825
H       -0.3036752223    0.3672465229    0.0369220002
H       -0.2481071745   -2.2726634532   -1.9387108572
C        0.4889274726    1.4849846453    1.5481039245
N        0.7945877822    2.3226959808    2.3147021063
6    
Image 3/11, Energy =  -169.0438545592 (+5.280 kcal/mol)
C       -0.3017369930   -1.3995152289   -1.2986491685
C       -0.4929950878   -0.4140381398   -0.6504925274
H       -0.5254426768    0.4552201623   -0.0306483347
H       -0.0894510596   -2.2742288510   -1.8222791395
C        0.5232659201    1.4235388731    1.5030729037
N        0.8863598976    2.2090231732    2.2989962555
6    
Image 4/11, Energy =  -169.0387220081 (+8.501 kcal/mol)
C       -0.2648262263   -1.3545513615   -1.2290952676
C       -0.5654963654   -0.3448376227   -0.6841735193
H       -0.7403760737    0.5537869055   -0.1450359861
H        0.0669136115   -2.2487162036   -1.6467600710
C        0.5052919088    1.4024405594    1.4153666712
N        0.9984931541    1.9918777215    2.2896981658
6    
Image 5/11, Energy =  -169.0325712808 (+12.361 kcal/mol)
C       -0.2303112296   -1.2982275757   -1.1434675859
C       -0.6320465082   -0.2665759051   -0.7027644980
H       -0.9595966380    0.6284436060   -0.2877604127
H        0.2266131291   -2.1727156538   -1.4376504270
C        0.4914681313    1.3717475691    1.3222030728
N        1.1038731137    1.7373279373    2.2494398416
6    
Image 6/11, Energy =  -169.0253814482 (+16.872 kcal/mol)
C       -0.2062216019   -1.2273684736   -1.0544300084
C       -0.6817626164   -0.2031240612   -0.6937902020
H       -1.1299605009    0.6794963850   -0.4059681964
H        0.3630677953   -2.0631509230   -1.2407184731
C        0.4898524955    1.3191786355    1.2238667423
N        1.1650244287    1.4949684333    2.1710401308
6    
Image 7/11, Energy =  -169.0138482291 (+24.110 kcal/mol)
C       -0.2039748901   -1.1567532522   -0.9595664919
C       -0.6895712464   -0.1267814359   -0.6482848209
H       -1.2416736411    0.7346694457   -0.5046408208
H        0.4826359421   -1.9268275793   -1.0409244174
C        0.4772186195    1.2291562747    1.1033770576
N        1.1753652115    1.2465365448    2.0500394854
6    
Image 8/11, Energy =  -168.9942038468 (+36.437 kcal/mol)
C       -0.2322402520   -1.0990406650   -0.9106953089
C       -0.6297799691   -0.0189407401   -0.5343488685
H       -1.3013192551    0.7801427331   -0.5846295004
H        0.5760780765   -1.7730095637   -0.8367973629
C        0.4402407646    1.0598415461    0.9615678057
N        1.1470206306    1.0510066985    1.9049032284
6    
Image 9/11, Energy =  -169.0213162807 (+19.423 kcal/mol)
C       -0.2710568401   -1.0739582568   -0.9390171700
C       -0.5029845341    0.1174875828   -0.3572809202
H       -1.3080993017    0.7863461509   -0.5973285204
H        0.6169003212   -1.6707356804   -0.7101242752
C        0.3861646937    0.8261968585    0.8356447497
N        1.0790756649    1.0146633603    1.7681061263
6    
Image 10/11, Energy =  -169.0437609545 (+5.339 kcal/mol)
C       -0.2721093513   -1.0384613434   -0.9953339881
C       -0.4664498990    0.1336943575   -0.3047184047
H       -1.3026915424    0.8069996864   -0.5503883163
H        0.6404231461   -1.5232274468   -0.5526624607
C        0.3524169885    0.6272448767    0.7650856657
N        1.0484106581    0.9937498643    1.6380174988
