6    
Image 0/11, Energy =  -169.0522692293 (+0.340 kcal/mol)
C       -0.3689809232   -1.4576547332   -1.3858823910
C       -0.1536196575   -0.5941379364   -0.5627748996
H        0.0498937432    0.2058682499    0.1931202386
H       -0.5557149982   -2.2230003307   -2.1042277546
C        0.4068909404    1.6172446315    1.5286738868
N        0.6215308952    2.4516801189    2.3310909145
6    
Image 1/11, Energy =  -169.0528111174 (+0.000 kcal/mol)
C       -0.3469563687   -1.4542590951   -1.3624453732
C       -0.2731064689   -0.5256264078   -0.6059538905
H       -0.1446120837    0.2876941685    0.1018702409
H       -0.3909968068   -2.2746198997   -2.0137165425
C        0.3816505532    1.6366019153    1.5130572453
N        0.7740212097    2.3302093158    2.3671883363
6    
Image 2/11, Energy =  -169.0507273354 (+1.308 kcal/mol)
C       -0.3207189106   -1.4397598912   -1.3284917128
C       -0.3901634518   -0.4586561148   -0.6473573625
H       -0.3362392626    0.3887473816    0.0197738898
H       -0.2245020530   -2.3095466925   -1.9039360831
C        0.3624416281    1.6436920439    1.4876474945
N        0.9091820786    2.1755233049    2.3723637801
6    
Image 3/11, Energy =  -169.0474720242 (+3.350 kcal/mol)
C       -0.2907179688   -1.4108839792   -1.2801687174
C       -0.4989059201   -0.3934882014   -0.6858776145
H       -0.5289262002    0.4862189263   -0.0712846031
H       -0.0593852153   -2.3095020763   -1.7635415811
C        0.3577577648    1.6329271655    1.4540196633
N        1.0201775202    1.9947281742    2.3468528616
6    
Image 4/11, Energy =  -169.0430878433 (+6.101 kcal/mol)
C       -0.2583092546   -1.3656418039   -1.2138440112
C       -0.5964597049   -0.3298353963   -0.7226940207
H       -0.7233587191    0.5760739619   -0.1732698675
H        0.1017740625   -2.2712853470   -1.5942955143
C        0.3694741251    1.5935319608    1.4092204228
N        1.1068794386    1.7971566119    2.2948829977
6    
Image 5/11, Energy =  -169.0373959081 (+9.673 kcal/mol)
C       -0.2267076659   -1.3017319084   -1.1349599843
C       -0.6795340361   -0.2660106571   -0.7500299869
H       -0.9180252036    0.6561341656   -0.2865149409
H        0.2569529451   -2.1912591597   -1.3962644383
C        0.3972800124    1.5093370734    1.3470603373
N        1.1700339396    1.5935304527    2.2207090116
6    
Image 6/11, Energy =  -169.0291331170 (+14.858 kcal/mol)
C       -0.2051667018   -1.2212628712   -1.0547499743
C       -0.7345594053   -0.1943490617   -0.7528289690
H       -1.1075061100    0.7247379549   -0.4081041845
H        0.4032674109   -2.0626979652   -1.1669081082
C        0.4322612856    1.3611992022    1.2552576927
N        1.2117034769    1.3923727036    2.1273335574
6    
Image 7/11, Energy =  -169.0127435296 (+25.143 kcal/mol)
C       -0.2155241717   -1.1484151680   -1.0072121311
C       -0.7161139194   -0.1023264800   -0.6858283725
H       -1.2632722845    0.7681285522   -0.5187662192
H        0.5204445086   -1.8885007789   -0.9315797688
C        0.4587142779    1.1406624078    1.1291064342
N        1.2157516157    1.2304514647    2.0142800388
6    
Image 8/11, Energy =  -168.9961617083 (+35.548 kcal/mol)
C       -0.2560654157   -1.1078405843   -1.0108833831
C       -0.6117559956    0.0070661437   -0.5322090392
H       -1.3364162500    0.7739435313   -0.5831564946
H        0.5809877811   -1.7271968685   -0.7600636201
C        0.4563781749    0.9100565965    0.9952236766
N        1.1668717370    1.1439711919    1.8910888627
6    
Image 9/11, Energy =  -169.0197670695 (+20.735 kcal/mol)
C       -0.2736748231   -1.0755976976   -1.0076888840
C       -0.5057165607    0.0912541330   -0.3814009005
H       -1.3194808743    0.7723658102   -0.5758634854
H        0.5997365696   -1.6624423447   -0.6945544860
C        0.4056419361    0.7783668656    0.8842818405
N        1.0934938058    1.0960532181    1.7752258877
6    
Image 10/11, Energy =  -169.0437609545 (+5.679 kcal/mol)
C       -0.2721093513   -1.0384613434   -0.9953339881
C       -0.4664498990    0.1336943575   -0.3047184047
H       -1.3026915424    0.8069996864   -0.5503883163
H        0.6404231461   -1.5232274468   -0.5526624607
C        0.3524169885    0.6272448767    0.7650856657
N        1.0484106581    0.9937498643    1.6380174988
