6    
Image 0/11, Energy =  -169.0522692293 (+0.315 kcal/mol)
C       -0.3689809232   -1.4576547332   -1.3858823910
C       -0.1536196575   -0.5941379364   -0.5627748996
H        0.0498937432    0.2058682499    0.1931202386
H       -0.5557149982   -2.2230003307   -2.1042277546
C        0.4068909404    1.6172446315    1.5286738868
N        0.6215308952    2.4516801189    2.3310909145
6    
Image 1/11, Energy =  -169.0527705558 (+0.000 kcal/mol)
C       -0.3451035418   -1.4542079690   -1.3590304029
C       -0.2712040817   -0.5238664526   -0.6060622044
H       -0.1457557442    0.2942868369    0.0985027153
H       -0.3904809326   -2.2764870684   -2.0096989154
C        0.3722046682    1.6433154257    1.5072629652
N        0.7803396469    2.3169592374    2.3690258333
6    
Image 2/11, Energy =  -169.0506798036 (+1.312 kcal/mol)
C       -0.3178922859   -1.4404637665   -1.3231404276
C       -0.3860786396   -0.4531953607   -0.6472999719
H       -0.3391450770    0.3983206076    0.0147889384
H       -0.2229087590   -2.3117147499   -1.8959786779
C        0.3472156276    1.6564262750    1.4807267313
N        0.9188091520    2.1506270002    2.3709033980
6    
Image 3/11, Energy =  -169.0474056206 (+3.367 kcal/mol)
C       -0.2864955229   -1.4098862224   -1.2707497692
C       -0.4944541529   -0.3860165889   -0.6873032891
H       -0.5335248712    0.4973353079   -0.0773013223
H       -0.0563241836   -2.3105176702   -1.7527171460
C        0.3405312256    1.6470037824    1.4495045488
N        1.0302675175    1.9620814053    2.3385670026
6    
Image 4/11, Energy =  -169.0429384544 (+6.170 kcal/mol)
C       -0.2532170455   -1.3613740051   -1.2047945682
C       -0.5941174250   -0.3215680950   -0.7230535176
H       -0.7301534773    0.5876933719   -0.1820307471
H        0.1070819206   -2.2696479584   -1.5791814070
C        0.3538534816    1.6020875584    1.4083858684
N        1.1165525443    1.7628090828    2.2806743763
6    
Image 5/11, Energy =  -169.0370398164 (+9.871 kcal/mol)
C       -0.2221309030   -1.2941283615   -1.1266800185
C       -0.6798373876   -0.2565694645   -0.7510128190
H       -0.9292180280    0.6674300794   -0.2990682476
H        0.2656823191   -2.1847728187   -1.3752107295
C        0.3841831953    1.5071555453    1.3485140219
N        1.1813208164    1.5608849605    2.2034578016
6    
Image 6/11, Energy =  -169.0284153518 (+15.283 kcal/mol)
C       -0.2028663284   -1.2134615526   -1.0487859423
C       -0.7320848574   -0.1855116858   -0.7512709218
H       -1.1180284308    0.7323054791   -0.4194585799
H        0.4107396560   -2.0528753486   -1.1481098663
C        0.4206927287    1.3468674222    1.2570328881
N        1.2215472344    1.3726756406    2.1105924208
6    
Image 7/11, Energy =  -169.0121151326 (+25.512 kcal/mol)
C       -0.2137186005   -1.1454095951   -1.0067746047
C       -0.7109287491   -0.0991919778   -0.6807032112
H       -1.2613119824    0.7710419974   -0.5200018900
H        0.5190377620   -1.8896498456   -0.9326696629
C        0.4479685623    1.1273066399    1.1347655818
N        1.2189530203    1.2359028070    2.0053838037
6    
Image 8/11, Energy =  -168.9961902355 (+35.505 kcal/mol)
C       -0.2525357340   -1.1076712028   -1.0115883021
C       -0.6136412728    0.0018354456   -0.5345252885
H       -1.3289442532    0.7764819701   -0.5786428749
H        0.5747725012   -1.7426258524   -0.7769068129
C        0.4531294643    0.9078555669    1.0079992173
N        1.1672192864    1.1641240936    1.8936640570
6    
Image 9/11, Energy =  -169.0195967006 (+20.817 kcal/mol)
C       -0.2713613713   -1.0748195703   -1.0077308826
C       -0.5040818264    0.0886752868   -0.3784727256
H       -1.3134197484    0.7755414458   -0.5690504186
H        0.5951337338   -1.6763942741   -0.7101956503
C        0.4040480381    0.7749577598    0.8900846681
N        1.0896811727    1.1120393971    1.7753650431
6    
Image 10/11, Energy =  -169.0437609545 (+5.654 kcal/mol)
C       -0.2721093513   -1.0384613434   -0.9953339881
C       -0.4664498990    0.1336943575   -0.3047184047
H       -1.3026915424    0.8069996864   -0.5503883163
H        0.6404231461   -1.5232274468   -0.5526624607
C        0.3524169885    0.6272448767    0.7650856657
N        1.0484106581    0.9937498643    1.6380174988
