6    
Image 0/11, Energy =  -169.0522692293 (+0.375 kcal/mol)
C       -0.3689809232   -1.4576547332   -1.3858823910
C       -0.1536196575   -0.5941379364   -0.5627748996
H        0.0498937432    0.2058682499    0.1931202386
H       -0.5557149982   -2.2230003307   -2.1042277546
C        0.4068909404    1.6172446315    1.5286738868
N        0.6215308952    2.4516801189    2.3310909145
6    
Image 1/11, Energy =  -169.0528661679 (+0.000 kcal/mol)
C       -0.3434188015   -1.4587215829   -1.3583658249
C       -0.2651769357   -0.5241820277   -0.6113059372
H       -0.1467035392    0.2985430334    0.0866619085
H       -0.3947332671   -2.2838495946   -2.0054945429
C        0.3484794710    1.6665664809    1.5096973718
N        0.8015532149    2.3016436473    2.3788069731
6    
Image 2/11, Energy =  -169.0506815056 (+1.371 kcal/mol)
C       -0.3123951619   -1.4418770122   -1.3166572282
C       -0.3767200061   -0.4461536692   -0.6535764490
H       -0.3421508821    0.4157834562   -0.0036695807
H       -0.2259739822   -2.3226347910   -1.8793995829
C        0.3026937935    1.6949407486    1.4860093364
N        0.9545462620    2.0999412484    2.3672934107
6    
Image 3/11, Energy =  -169.0472472042 (+3.526 kcal/mol)
C       -0.2773108884   -1.4049629735   -1.2578894951
C       -0.4868390537   -0.3688006022   -0.6956152893
H       -0.5459426886    0.5258716834   -0.1043903653
H       -0.0507024844   -2.3192052037   -1.7183878006
C        0.2846673611    1.6933870018    1.4670549940
N        1.0761277209    1.8737099477    2.3092279495
6    
Image 4/11, Energy =  -169.0428024311 (+6.315 kcal/mol)
C       -0.2405726518   -1.3515188748   -1.1868192731
C       -0.5898826831   -0.2993535043   -0.7371457929
H       -0.7536891913    0.6188510411   -0.2197979183
H        0.1194542640   -2.2731919863   -1.5324498471
C        0.2973787176    1.6519763964    1.4465134503
N        1.1673115169    1.6532368357    2.2296994640
6    
Image 5/11, Energy =  -169.0372214349 (+9.817 kcal/mol)
C       -0.2052566924   -1.2790036238   -1.1038027906
C       -0.6829740422   -0.2344480940   -0.7738720582
H       -0.9653008379    0.6953871760   -0.3527040979
H        0.2821599478   -2.1809851458   -1.3197066659
C        0.3341799509    1.5493966206    1.4054584901
N        1.2371916097    1.4496532138    2.1446274402
6    
Image 6/11, Energy =  -169.0294311247 (+14.706 kcal/mol)
C       -0.1849598116   -1.1937752249   -1.0217877476
C       -0.7479043651   -0.1686307675   -0.7801412072
H       -1.1502424865    0.7535661453   -0.4722244763
H        0.4274613274   -2.0400787136   -1.0921512517
C        0.3828494238    1.3696616742    1.3050697892
N        1.2727960042    1.2792570151    2.0612349650
6    
Image 7/11, Energy =  -169.0137118304 (+24.570 kcal/mol)
C       -0.2010606621   -1.1304295466   -0.9888379998
C       -0.7295367975   -0.0889933181   -0.7070973696
H       -1.2783948498    0.7873864984   -0.5606234783
H        0.5268419207   -1.8776527066   -0.8887248061
C        0.4234055477    1.1274229620    1.1650004604
N        1.2587449866    1.1822662284    1.9802832424
6    
Image 8/11, Energy =  -168.9961773961 (+35.573 kcal/mol)
C       -0.2504070377   -1.1026244992   -1.0116449811
C       -0.6169746796    0.0073782755   -0.5403122512
H       -1.3248945967    0.7883305541   -0.6013568624
H        0.5686226168   -1.7399189999   -0.7533989468
C        0.4404999554    0.9005091159    1.0207432646
N        1.1831538355    1.1463256779    1.8859699178
6    
Image 9/11, Energy =  -169.0167555696 (+22.660 kcal/mol)
C       -0.2705565277   -1.0735666805   -1.0106179590
C       -0.5088427153    0.0878779469   -0.3873250850
H       -1.3085991496    0.7818402251   -0.5896811519
H        0.5834277966   -1.6879070344   -0.7048363604
C        0.4009587418    0.7806841154    0.9089286423
N        1.1036119290    1.1110715387    1.7835320450
6    
Image 10/11, Energy =  -169.0437609544 (+5.714 kcal/mol)
C       -0.2721093513   -1.0384613434   -0.9953339881
C       -0.4664498990    0.1336943575   -0.3047184047
H       -1.3026915424    0.8069996864   -0.5503883163
H        0.6404231461   -1.5232274468   -0.5526624607
C        0.3524169885    0.6272448767    0.7650856657
N        1.0484106581    0.9937498643    1.6380174988
