6    
Image 0/11, Energy =  -169.0522692293 (+0.230 kcal/mol)
C       -0.3689809232   -1.4576547332   -1.3858823910
C       -0.1536196575   -0.5941379364   -0.5627748996
H        0.0498937432    0.2058682499    0.1931202386
H       -0.5557149982   -2.2230003307   -2.1042277546
C        0.4068909404    1.6172446315    1.5286738868
N        0.6215308952    2.4516801189    2.3310909145
6    
Image 1/11, Energy =  -169.0526353277 (+0.000 kcal/mol)
C       -0.3512307076   -1.4486063652   -1.3676426349
C       -0.2778281233   -0.5271600351   -0.6028835035
H       -0.1355078857    0.2750097222    0.1139882356
H       -0.3956886924   -2.2667235744   -2.0225218303
C        0.4196502149    1.5975828861    1.5320402745
N        0.7406052369    2.3698973461    2.3470194858
6    
Image 2/11, Energy =  -169.0501547365 (+1.557 kcal/mol)
C       -0.3270827748   -1.4340887316   -1.3391654388
C       -0.3986361364   -0.4610489144   -0.6438118702
H       -0.3235561852    0.3693423335    0.0398865518
H       -0.2337182275   -2.2986952167   -1.9218035843
C        0.4271240174    1.5672392700    1.5125202183
N        0.8558693263    2.2572512561    2.3523741484
6    
Image 3/11, Energy =  -169.0464900144 (+3.856 kcal/mol)
C       -0.2986865598   -1.4068527521   -1.2935318519
C       -0.5092854496   -0.3996218373   -0.6837894774
H       -0.5211360143    0.4637857886   -0.0483279202
H       -0.0695559277   -2.2991186832   -1.7900905831
C        0.4349994935    1.5338896430    1.4728339960
N        0.9636644629    2.1079178657    2.3429058241
6    
Image 4/11, Energy =  -169.0419583149 (+6.700 kcal/mol)
C       -0.2665948852   -1.3672870852   -1.2276146534
C       -0.6059532780   -0.3391398132   -0.7185643441
H       -0.7225332138    0.5546167346   -0.1539373562
H        0.0922529191   -2.2636598491   -1.6272933515
C        0.4423823988    1.4987818506    1.4140838032
N        1.0604460274    1.9166881608    2.3133258795
6    
Image 5/11, Energy =  -169.0366563204 (+10.027 kcal/mol)
C       -0.2325346598   -1.3085366791   -1.1448440760
C       -0.6849930076   -0.2783605148   -0.7424437147
H       -0.9187980438    0.6376119253   -0.2700801650
H        0.2471124000   -2.1911144797   -1.4329968744
C        0.4521077192    1.4542042783    1.3356670069
N        1.1371055440    1.6861954606    2.2546978119
6    
Image 6/11, Energy =  -169.0297521709 (+14.359 kcal/mol)
C       -0.2026913634   -1.2327282441   -1.0559870848
C       -0.7347356627   -0.2079925160   -0.7445002670
H       -1.0961771267    0.7094171415   -0.3869853768
H        0.3872498391   -2.0791609190   -1.2100867432
C        0.4634631270    1.3728159218    1.2384328604
N        1.1828911504    1.4376486016    2.1591266334
6    
Image 7/11, Energy =  -169.0164846348 (+22.685 kcal/mol)
C       -0.2011255043   -1.1561949737   -0.9920257063
C       -0.7197148398   -0.1216508765   -0.6912666484
H       -1.2400330287    0.7610405380   -0.4880025181
H        0.5007159717   -1.9330886694   -0.9885683363
C        0.4701749746    1.2090263788    1.1195097717
N        1.1899824328    1.2408676051    2.0403534490
6    
Image 8/11, Energy =  -168.9961813959 (+35.425 kcal/mol)
C       -0.2376275821   -1.1080420651   -0.9815707963
C       -0.6237530453   -0.0025318842   -0.5494243671
H       -1.3291728066    0.7783915328   -0.5631410058
H        0.5757109327   -1.7706742344   -0.8009000985
C        0.4604287050    0.9740589652    0.9851923352
N        1.1544138288    1.1287976652    1.9098439527
6    
Image 9/11, Energy =  -169.0131382631 (+24.785 kcal/mol)
C       -0.2659330426   -1.0808543016   -0.9929680889
C       -0.5127248031    0.0806579708   -0.3988035527
H       -1.3132221633    0.7749312306   -0.5614080955
H        0.5914572152   -1.7005047481   -0.7345501896
C        0.4119772586    0.8240598493    0.8878663837
N        1.0884455661    1.1017099790    1.7998635438
6    
Image 10/11, Energy =  -169.0437609545 (+5.569 kcal/mol)
C       -0.2721093513   -1.0384613434   -0.9953339881
C       -0.4664498990    0.1336943575   -0.3047184047
H       -1.3026915424    0.8069996864   -0.5503883163
H        0.6404231461   -1.5232274468   -0.5526624607
C        0.3524169885    0.6272448767    0.7650856657
N        1.0484106581    0.9937498643    1.6380174988
