6    
Image 0/11, Energy =  -169.0522692293 (+0.362 kcal/mol)
C       -0.3689809232   -1.4576547332   -1.3858823910
C       -0.1536196575   -0.5941379364   -0.5627748996
H        0.0498937432    0.2058682499    0.1931202386
H       -0.5557149982   -2.2230003307   -2.1042277546
C        0.4068909404    1.6172446315    1.5286738868
N        0.6215308952    2.4516801189    2.3310909145
6    
Image 1/11, Energy =  -169.0528465801 (+0.000 kcal/mol)
C       -0.3431548356   -1.4584410231   -1.3578338175
C       -0.2655145036   -0.5233007582   -0.6114723202
H       -0.1473749761    0.2999109696    0.0860421077
H       -0.3939867340   -2.2842083639   -2.0041599197
C        0.3476434748    1.6663702536    1.5089427844
N        0.8023877312    2.2996688761    2.3784811063
6    
Image 2/11, Energy =  -169.0506552059 (+1.375 kcal/mol)
C       -0.3121169633   -1.4415387881   -1.3161533817
C       -0.3773092077   -0.4452221021   -0.6540066082
H       -0.3433805541    0.4170756173   -0.0045468730
H       -0.2248964682   -2.3228636167   -1.8778653160
C        0.3021962150    1.6946040826    1.4858337704
N        0.9555070043    2.0979447818    2.3667383236
6    
Image 3/11, Energy =  -169.0472472042 (+3.514 kcal/mol)
C       -0.2773108884   -1.4049629735   -1.2578894951
C       -0.4868390537   -0.3688006022   -0.6956152893
H       -0.5459426886    0.5258716834   -0.1043903653
H       -0.0507024844   -2.3192052037   -1.7183878006
C        0.2846673611    1.6933870018    1.4670549940
N        1.0761277209    1.8737099477    2.3092279495
6    
Image 4/11, Energy =  -169.0427606635 (+6.329 kcal/mol)
C       -0.2402355185   -1.3509375608   -1.1862789869
C       -0.5905484090   -0.2986492903   -0.7378112870
H       -0.7556317179    0.6197996432   -0.2215346806
H        0.1206360622   -2.2727917314   -1.5305738013
C        0.2972267444    1.6512653847    1.4471794478
N        1.1685528012    1.6513134710    2.2290194056
6    
Image 5/11, Energy =  -169.0371518611 (+9.849 kcal/mol)
C       -0.2047674828   -1.2780163192   -1.1024994776
C       -0.6838361700   -0.2335450146   -0.7744269370
H       -0.9680431546    0.6964298069   -0.3552518831
H        0.2837362856   -2.1796660268   -1.3170969405
C        0.3346362882    1.5480275321    1.4054789146
N        1.2382741654    1.4467701983    2.1437966847
6    
Image 6/11, Energy =  -169.0293720378 (+14.730 kcal/mol)
C       -0.1846945825   -1.1929295960   -1.0209645313
C       -0.7483886716   -0.1679554537   -0.7804759734
H       -1.1518652670    0.7541024215   -0.4737718579
H        0.4284877231   -2.0387969517   -1.0900724753
C        0.3830018492    1.3682537524    1.3049265981
N        1.2734590418    1.2773259731    2.0603583203
6    
Image 7/11, Energy =  -169.0136197025 (+24.615 kcal/mol)
C       -0.2009987593   -1.1299580796   -0.9883429238
C       -0.7295557296   -0.0884406502   -0.7067314585
H       -1.2791501616    0.7876750499   -0.5613563685
H        0.5274419466   -1.8766136533   -0.8874505535
C        0.4235090980    1.1262392960    1.1642459593
N        1.2587537542    1.1810981716    1.9796353959
6    
Image 8/11, Energy =  -168.9961773961 (+35.560 kcal/mol)
C       -0.2504070377   -1.1026244992   -1.0116449811
C       -0.6169746796    0.0073782755   -0.5403122512
H       -1.3248945967    0.7883305541   -0.6013568624
H        0.5686226168   -1.7399189999   -0.7533989468
C        0.4404999554    0.9005091159    1.0207432646
N        1.1831538355    1.1463256779    1.8859699178
6    
Image 9/11, Energy =  -169.0167555696 (+22.647 kcal/mol)
C       -0.2705565277   -1.0735666805   -1.0106179590
C       -0.5088427153    0.0878779469   -0.3873250850
H       -1.3085991496    0.7818402251   -0.5896811519
H        0.5834277966   -1.6879070344   -0.7048363604
C        0.4009587418    0.7806841154    0.9089286423
N        1.1036119290    1.1110715387    1.7835320450
6    
Image 10/11, Energy =  -169.0437609544 (+5.701 kcal/mol)
C       -0.2721093513   -1.0384613434   -0.9953339881
C       -0.4664498990    0.1336943575   -0.3047184047
H       -1.3026915424    0.8069996864   -0.5503883163
H        0.6404231461   -1.5232274468   -0.5526624607
C        0.3524169885    0.6272448767    0.7650856657
N        1.0484106581    0.9937498643    1.6380174988
