6    
Image 0/11, Energy =  -169.0522692293 (+0.817 kcal/mol)
C       -0.3689809232   -1.4576547332   -1.3858823910
C       -0.1536196575   -0.5941379364   -0.5627748996
H        0.0498937432    0.2058682499    0.1931202386
H       -0.5557149982   -2.2230003307   -2.1042277546
C        0.4068909404    1.6172446315    1.5286738868
N        0.6215308952    2.4516801189    2.3310909145
6    
Image 1/11, Energy =  -169.0535707603 (+0.000 kcal/mol)
C       -0.3535367024   -1.4841114166   -1.3950245209
C       -0.2619945799   -0.5699872158   -0.6245031042
H       -0.1399073399    0.2371890016    0.0844160920
H       -0.4218979717   -2.2927769681   -2.0639231005
C        0.3736390411    1.7085549761    1.5802137013
N        0.8036974325    2.4011317744    2.4188210378
6    
Image 2/11, Energy =  -169.0520985529 (+0.924 kcal/mol)
C       -0.3275204607   -1.4702724861   -1.3675691760
C       -0.3588596231   -0.5155031175   -0.6430078814
H       -0.3108768932    0.3197051344    0.0392712160
H       -0.2748594573   -2.3170529147   -1.9887228814
C        0.3260054798    1.7269017334    1.5604725706
N        0.9461108851    2.2562216644    2.3995560997
6    
Image 3/11, Energy =  -169.0504475161 (+1.960 kcal/mol)
C       -0.3061619986   -1.4527324267   -1.3288514900
C       -0.4144663105   -0.4603040958   -0.6650735058
H       -0.4182246418    0.4015716614   -0.0181510489
H       -0.1798671267   -2.3294931345   -1.8948436297
C        0.2938749978    1.7424821656    1.5325869155
N        1.0248449350    2.0984758534    2.3743327241
6    
Image 4/11, Energy =  -169.0461827252 (+4.636 kcal/mol)
C       -0.2636888468   -1.4033821152   -1.2443985268
C       -0.5245210849   -0.3662583254   -0.7051878195
H       -0.6380798840    0.5391052601   -0.1443722226
H        0.0085087085   -2.3176074411   -1.6852573748
C        0.2765205453    1.7629741912    1.4948773143
N        1.1412606478    1.7851685561    2.2843386801
6    
Image 5/11, Energy =  -169.0409384863 (+7.927 kcal/mol)
C       -0.2222401370   -1.3391420867   -1.1469962096
C       -0.6329859836   -0.2889508161   -0.7474123062
H       -0.8726999373    0.6423472237   -0.2945835022
H        0.1896829871   -2.2562538752   -1.4518541534
C        0.3183137900    1.7536337465    1.4704189503
N        1.2199292033    1.4883657126    2.1704273794
6    
Image 6/11, Energy =  -169.0358398256 (+11.126 kcal/mol)
C       -0.1927233031   -1.2627067256   -1.0525524026
C       -0.7227652832   -0.2243054849   -0.7901624585
H       -1.0801223074    0.7124872730   -0.4547622896
H        0.3324344344   -2.1569979813   -1.2196175963
C        0.3876015704    1.6868356281    1.4457629354
N        1.2755747769    1.2446873520    2.0713317501
6    
Image 7/11, Energy =  -169.0304506616 (+14.508 kcal/mol)
C       -0.1758996192   -1.1663239075   -0.9709864167
C       -0.7971671864   -0.1559256610   -0.8336503503
H       -1.2504571666    0.7676135679   -0.6050231127
H        0.4488428336   -2.0104324988   -0.9901829902
C        0.4220041368    1.4647661046    1.3931553795
N        1.3526770491    1.1003025396    2.0066873913
6    
Image 8/11, Energy =  -169.0188326599 (+21.798 kcal/mol)
C       -0.1845167956   -1.1119049535   -0.9530177605
C       -0.7747417783   -0.0880833936   -0.7680630321
H       -1.2977186273    0.8065930182   -0.6107907348
H        0.5241676780   -1.8778321490   -0.8471749751
C        0.4166901128    1.1712020280    1.2170690833
N        1.3161192464    1.1000256109    1.9619774755
6    
Image 9/11, Energy =  -168.9961873529 (+36.009 kcal/mol)
C       -0.2592950124   -1.1008483116   -1.0108771382
C       -0.6094375542    0.0161165176   -0.5428147460
H       -1.3013833765    0.8098481090   -0.6141415649
H        0.5413955804   -1.7579160011   -0.7460210432
C        0.4388588036    0.8928623189    1.0282913866
N        1.1898612113    1.1399374716    1.8855631713
6    
Image 10/11, Energy =  -169.0437609544 (+6.156 kcal/mol)
C       -0.2721093513   -1.0384613434   -0.9953339881
C       -0.4664498990    0.1336943575   -0.3047184047
H       -1.3026915424    0.8069996864   -0.5503883163
H        0.6404231461   -1.5232274468   -0.5526624607
C        0.3524169885    0.6272448767    0.7650856657
N        1.0484106581    0.9937498643    1.6380174988
