6    
Image 0/11, Energy =  -169.0522692293 (+0.202 kcal/mol)
C       -0.3689809232   -1.4576547332   -1.3858823910
C       -0.1536196575   -0.5941379364   -0.5627748996
H        0.0498937432    0.2058682499    0.1931202386
H       -0.5557149982   -2.2230003307   -2.1042277546
C        0.4068909404    1.6172446315    1.5286738868
N        0.6215308952    2.4516801189    2.3310909145
6    
Image 1/11, Energy =  -169.0525913531 (+0.000 kcal/mol)
C       -0.3416988808   -1.4518977014   -1.3536825959
C       -0.2704216094   -0.5162586175   -0.6075028017
H       -0.1503482300    0.3058564428    0.0933562569
H       -0.3864317709   -2.2788123478   -1.9977191704
C        0.3589255001    1.6464398923    1.4980810198
N        0.7899749852    2.2946722917    2.3674672696
6    
Image 2/11, Energy =  -169.0502745135 (+1.454 kcal/mol)
C       -0.3114760587   -1.4335772211   -1.3122697355
C       -0.3869815863   -0.4386556534   -0.6503472749
H       -0.3492614652    0.4195945507    0.0038070823
H       -0.2128369476   -2.3133454781   -1.8708811044
C        0.3256481166    1.6600826226    1.4693601461
N        0.9349079908    2.1059011731    2.3603308582
6    
Image 3/11, Energy =  -169.0467322537 (+3.677 kcal/mol)
C       -0.2776329849   -1.3979677332   -1.2552769523
C       -0.4985692157   -0.3656731777   -0.6919154436
H       -0.5511689411    0.5251001725   -0.0953381879
H       -0.0388882814   -2.3074569701   -1.7142731931
C        0.3156777378    1.6469946411    1.4417627045
N        1.0505817205    1.8990030334    2.3150411663
6    
Image 4/11, Energy =  -169.0420252524 (+6.630 kcal/mol)
C       -0.2427137569   -1.3452886999   -1.1850951824
C       -0.6004136537   -0.2992936164   -0.7297618546
H       -0.7542509806    0.6158130125   -0.2054482352
H        0.1294778985   -2.2588722746   -1.5330857668
C        0.3291108273    1.5923874309    1.4073523728
N        1.1387896960    1.6952540928    2.2460387081
6    
Image 5/11, Energy =  -169.0361083268 (+10.343 kcal/mol)
C       -0.2119072219   -1.2776029691   -1.1077167969
C       -0.6845992631   -0.2380204234   -0.7573837135
H       -0.9518405973    0.6884691062   -0.3221332418
H        0.2852870052   -2.1691633812   -1.3343459748
C        0.3607010169    1.4867881999    1.3539706812
N        1.2023591152    1.5095294653    2.1676090606
6    
Image 6/11, Energy =  -169.0277570528 (+15.584 kcal/mol)
C       -0.1957271484   -1.2018300589   -1.0380635642
C       -0.7339525029   -0.1738399884   -0.7563710644
H       -1.1313746042    0.7434393657   -0.4366085097
H        0.4207016117   -2.0412832673   -1.1231076276
C        0.4016096520    1.3243453928    1.2683424810
N        1.2387430039    1.3491685404    2.0858082622
6    
Image 7/11, Energy =  -169.0119817572 (+25.483 kcal/mol)
C       -0.2107773588   -1.1413335934   -1.0053236489
C       -0.7115854899   -0.0953817477   -0.6837176340
H       -1.2647115565    0.7743136508   -0.5271730192
H        0.5196803712   -1.8878099399   -0.9267885664
C        0.4392898570    1.1134429476    1.1453943651
N        1.2281041679    1.2367686390    1.9976084293
6    
Image 8/11, Energy =  -168.9962095846 (+35.380 kcal/mol)
C       -0.2521018949   -1.1071225914   -1.0124981785
C       -0.6147168895    0.0007658408   -0.5348183670
H       -1.3285271524    0.7771608146   -0.5801567446
H        0.5733087499   -1.7452329057   -0.7799527776
C        0.4535631422    0.9029205674    1.0129934483
N        1.1684740150    1.1715082933    1.8944325850
6    
Image 9/11, Energy =  -169.0185481864 (+21.362 kcal/mol)
C       -0.2719625516   -1.0757314587   -1.0098528780
C       -0.5069210254    0.0856166830   -0.3812102048
H       -1.3135117481    0.7752545292   -0.5708749214
H        0.5941009964   -1.6771003016   -0.7120056808
C        0.4053047108    0.7756581993    0.8955912835
N        1.0929895856    1.1163023882    1.7783524219
6    
Image 10/11, Energy =  -169.0437609545 (+5.541 kcal/mol)
C       -0.2721093513   -1.0384613434   -0.9953339881
C       -0.4664498990    0.1336943575   -0.3047184047
H       -1.3026915424    0.8069996864   -0.5503883163
H        0.6404231461   -1.5232274468   -0.5526624607
C        0.3524169885    0.6272448767    0.7650856657
N        1.0484106581    0.9937498643    1.6380174988
