6    
Image 0/11, Energy =  -169.0522692293 (+0.343 kcal/mol)
C       -0.3689809232   -1.4576547332   -1.3858823910
C       -0.1536196575   -0.5941379364   -0.5627748996
H        0.0498937432    0.2058682499    0.1931202386
H       -0.5557149982   -2.2230003307   -2.1042277546
C        0.4068909404    1.6172446315    1.5286738868
N        0.6215308952    2.4516801189    2.3310909145
6    
Image 1/11, Energy =  -169.0528156966 (+0.000 kcal/mol)
C       -0.3493266654   -1.4537023604   -1.3641242452
C       -0.2749036955   -0.5267456472   -0.6055704757
H       -0.1421014379    0.2849947836    0.1051054061
H       -0.3908542682   -2.2741331674   -2.0173821542
C        0.3898715476    1.6293943864    1.5180571785
N        0.7673145521    2.3401919847    2.3639143240
6    
Image 2/11, Energy =  -169.0507284921 (+1.310 kcal/mol)
C       -0.3267266802   -1.4405099638   -1.3332756378
C       -0.3936220845   -0.4603169770   -0.6486333755
H       -0.3336627900    0.3808108066    0.0268627513
H       -0.2233312684   -2.3082726583   -1.9116095676
C        0.3786958998    1.6285423023    1.4953615909
N        0.8986469561    2.1997464885    2.3712942535
6    
Image 3/11, Energy =  -169.0474272715 (+3.381 kcal/mol)
C       -0.2975900914   -1.4154717469   -1.2861791976
C       -0.5043559674   -0.3944892138   -0.6895347676
H       -0.5262496349    0.4757978275   -0.0621022434
H       -0.0586116581   -2.3084593533   -1.7749688862
C        0.3774442319    1.6145266745    1.4605394462
N        1.0093630935    2.0280958137    2.3522456597
6    
Image 4/11, Energy =  -169.0431061420 (+6.093 kcal/mol)
C       -0.2641840146   -1.3691460489   -1.2222797671
C       -0.6021395358   -0.3348285811   -0.7250503113
H       -0.7189912337    0.5663420642   -0.1639565111
H        0.1005759884   -2.2726799610   -1.6061145830
C        0.3878564546    1.5806410430    1.4107618200
N        1.0968822731    1.8296715227    2.3066393218
6    
Image 5/11, Energy =  -169.0375762618 (+9.563 kcal/mol)
C       -0.2302315534   -1.3050935881   -1.1434267686
C       -0.6819225211   -0.2728484680   -0.7512291578
H       -0.9102890835    0.6476270664   -0.2765941754
H        0.2519835318   -2.1961089342   -1.4073129985
C        0.4097523258    1.5101968903    1.3443616556
N        1.1607072415    1.6162270202    2.2342014529
6    
Image 6/11, Energy =  -169.0297858521 (+14.451 kcal/mol)
C       -0.2054123998   -1.2284539743   -1.0612999167
C       -0.7324472737   -0.2021466255   -0.7526583410
H       -1.0942341343    0.7154535001   -0.3928030794
H        0.3920987443   -2.0749351301   -1.1880981198
C        0.4398425914    1.3745398507    1.2532571296
N        1.2001524744    1.4155423818    2.1416023378
6    
Image 7/11, Energy =  -169.0140891946 (+24.301 kcal/mol)
C       -0.2127980450   -1.1521588940   -1.0058656862
C       -0.7197271834   -0.1104295462   -0.6916019036
H       -1.2566218537    0.7626252762   -0.5081804528
H        0.5134772478   -1.9015884758   -0.9510530956
C        0.4673232776    1.1579752948    1.1285637049
N        1.2083465584    1.2435763169    2.0281374614
6    
Image 8/11, Energy =  -168.9961399140 (+35.565 kcal/mol)
C       -0.2571088679   -1.1048104162   -1.0015910634
C       -0.6147633200    0.0174718372   -0.5328530143
H       -1.3539247120    0.7719391640   -0.5970724885
H        0.5903040324   -1.7038664511   -0.7367304953
C        0.4677119984    0.8989668179    0.9805716725
N        1.1677809113    1.1202990216    1.8876753718
6    
Image 9/11, Energy =  -169.0164531815 (+22.818 kcal/mol)
C       -0.2712347096   -1.0787285485   -1.0001487242
C       -0.5208408122    0.0904225006   -0.3998504248
H       -1.3369447694    0.7743572511   -0.5840864951
H        0.6075158452   -1.6535453391   -0.6854995976
C        0.4180345864    0.7832960220    0.8850833115
N        1.1034698704    1.0841981162    1.7845019578
6    
Image 10/11, Energy =  -169.0437609545 (+5.682 kcal/mol)
C       -0.2721093513   -1.0384613434   -0.9953339881
C       -0.4664498990    0.1336943575   -0.3047184047
H       -1.3026915424    0.8069996864   -0.5503883163
H        0.6404231461   -1.5232274468   -0.5526624607
C        0.3524169885    0.6272448767    0.7650856657
N        1.0484106581    0.9937498643    1.6380174988
