6    
Image 0/11, Energy =  -169.0522692293 (+0.316 kcal/mol)
C       -0.3689809232   -1.4576547332   -1.3858823910
C       -0.1536196575   -0.5941379364   -0.5627748996
H        0.0498937432    0.2058682499    0.1931202386
H       -0.5557149982   -2.2230003307   -2.1042277546
C        0.4068909404    1.6172446315    1.5286738868
N        0.6215308952    2.4516801189    2.3310909145
6    
Image 1/11, Energy =  -169.0527721670 (+0.000 kcal/mol)
C       -0.3517270587   -1.4531239610   -1.3635005636
C       -0.2745661953   -0.5263887259   -0.6066055639
H       -0.1406205374    0.2817269586    0.1087671810
H       -0.3911021719   -2.2711792269   -2.0192164849
C        0.3979956396    1.6199871354    1.5207182721
N        0.7600203629    2.3489777850    2.3598371959
6    
Image 2/11, Energy =  -169.0506073992 (+1.358 kcal/mol)
C       -0.3293690208   -1.4395449326   -1.3350456820
C       -0.3937874038   -0.4604177990   -0.6491399553
H       -0.3314605489    0.3762775228    0.0312236114
H       -0.2251202647   -2.3050045484   -1.9146225733
C        0.3925136299    1.6104963576    1.5000182526
N        0.8872236330    2.2181933899    2.3675663661
6    
Image 3/11, Energy =  -169.0472340355 (+3.475 kcal/mol)
C       -0.2997631216   -1.4126058108   -1.2905304679
C       -0.5056273000   -0.3982688926   -0.6872431654
H       -0.5255851489    0.4713641710   -0.0580245326
H       -0.0608357432   -2.3052657012   -1.7797222694
C        0.3944309846    1.5902448909    1.4634470891
N        0.9973803024    2.0545313586    2.3520733474
6    
Image 4/11, Energy =  -169.0428575459 (+6.222 kcal/mol)
C       -0.2669519246   -1.3687951546   -1.2264848312
C       -0.6027754582   -0.3378735826   -0.7228063436
H       -0.7190863186    0.5623382356   -0.1601639504
H        0.0983682744   -2.2702817223   -1.6126142010
C        0.4028067018    1.5578707880    1.4100458515
N        1.0876386604    1.8567414727    2.3120234311
6    
Image 5/11, Energy =  -169.0373802677 (+9.659 kcal/mol)
C       -0.2336319914   -1.3073758161   -1.1468432236
C       -0.6815234016   -0.2747882275   -0.7482342797
H       -0.9124611738    0.6450115874   -0.2738766422
H        0.2516422428   -2.1954207996   -1.4140168170
C        0.4211906358    1.4967189495    1.3405437216
N        1.1547836189    1.6358542931    2.2424272424
6    
Image 6/11, Energy =  -169.0298242820 (+14.400 kcal/mol)
C       -0.2075208723   -1.2311211691   -1.0641625656
C       -0.7296738913   -0.2045872064   -0.7490977417
H       -1.0941860161    0.7138925937   -0.3883911673
H        0.3907376687   -2.0790604579   -1.1952769942
C        0.4461842982    1.3771841945    1.2487532663
N        1.1944588111    1.4236920389    2.1481752203
6    
Image 7/11, Energy =  -169.0150104144 (+23.696 kcal/mol)
C       -0.2096296102   -1.1565300898   -1.0042195549
C       -0.7182168877   -0.1137260843   -0.6920001389
H       -1.2496418940    0.7613587080   -0.4974225947
H        0.5079626535   -1.9164723613   -0.9684650949
C        0.4679522195    1.1755367551    1.1273980309
N        1.2015735236    1.2498330683    2.0347093910
6    
Image 8/11, Energy =  -168.9960063151 (+35.621 kcal/mol)
C       -0.2522432030   -1.1044913578   -0.9932970924
C       -0.6180820354    0.0153385595   -0.5378336372
H       -1.3527573294    0.7756393576   -0.5906843473
H        0.5907086439   -1.7194160901   -0.7494780700
C        0.4680800462    0.9135157735    0.9787050406
N        1.1642939129    1.1194137283    1.8925881171
6    
Image 9/11, Energy =  -169.0149786555 (+23.716 kcal/mol)
C       -0.2713475100   -1.0809989854   -0.9996481853
C       -0.5187593180    0.0881093052   -0.4010253413
H       -1.3329101547    0.7741826999   -0.5769922389
H        0.6038939265   -1.6720406067   -0.7032433054
C        0.4195115066    0.7976256218    0.8880199239
N        1.0996115596    1.0931219676    1.7928891818
6    
Image 10/11, Energy =  -169.0437609545 (+5.655 kcal/mol)
C       -0.2721093513   -1.0384613434   -0.9953339881
C       -0.4664498990    0.1336943575   -0.3047184047
H       -1.3026915424    0.8069996864   -0.5503883163
H        0.6404231461   -1.5232274468   -0.5526624607
C        0.3524169885    0.6272448767    0.7650856657
N        1.0484106581    0.9937498643    1.6380174988
