6    
Image 0/11, Energy =  -169.0522692293 (+0.000 kcal/mol)
C       -0.3689809232   -1.4576547332   -1.3858823910
C       -0.1536196575   -0.5941379364   -0.5627748996
H        0.0498937432    0.2058682499    0.1931202386
H       -0.5557149982   -2.2230003307   -2.1042277546
C        0.4068909404    1.6172446315    1.5286738868
N        0.6215308952    2.4516801189    2.3310909145
6    
Image 1/11, Energy =  -168.9768892194 (+47.302 kcal/mol)
C       -0.3556517176   -1.3978507036   -1.3381355392
C       -0.3189709704   -0.5860815464   -0.5788038611
H       -0.0604727982    0.3391366873    0.0998421186
H       -0.4011371236   -2.2846564624   -2.0466672145
C        0.4466990257    1.5954465078    1.5782447884
N        0.6895335894    2.3340055222    2.2855197079
6    
Image 2/11, Energy =  -169.0048121719 (+29.780 kcal/mol)
C       -0.3237456814   -1.3959953524   -1.3394955957
C       -0.4322669054   -0.5149792879   -0.5871257613
H       -0.2911145578    0.4328356779    0.0055700046
H       -0.2412409775   -2.3059631264   -1.9514004144
C        0.5108334325    1.4983793047    1.6045708145
N        0.7775346897    2.2857227789    2.2678809522
6    
Image 3/11, Energy =  -169.0077833724 (+27.915 kcal/mol)
C       -0.3011705652   -1.3761977680   -1.3143076911
C       -0.4913264458   -0.4398989755   -0.6290393668
H       -0.5327757396    0.4544534770   -0.0107481833
H       -0.0951084660   -2.2863694887   -1.8479518404
C        0.5764382289    1.4395896839    1.5591889884
N        0.8439429877    2.2084230660    2.2428580932
6    
Image 4/11, Energy =  -168.9611141438 (+57.201 kcal/mol)
C       -0.3029893297   -1.3018097307   -1.2316186387
C       -0.4980916544   -0.3921798755   -0.6577014569
H       -0.7594761157    0.5926413694   -0.1412246562
H        0.0723104264   -2.2759448440   -1.6534740124
C        0.5278190247    1.4121542507    1.4437040989
N        0.9604276433    1.9651388300    2.2403146601
6    
Image 5/11, Energy =  -168.9646205601 (+55.000 kcal/mol)
C       -0.2868365772   -1.2606783939   -1.1619632382
C       -0.5505491903   -0.2897243519   -0.6649901347
H       -1.0103266767    0.6862976073   -0.2872085717
H        0.2612414124   -2.2254112218   -1.4421373357
C        0.5182584590    1.3716557157    1.3578467342
N        1.0682125729    1.7178606446    2.1984525515
6    
Image 6/11, Energy =  -168.9642643410 (+55.224 kcal/mol)
C       -0.2732842709   -1.2224152863   -1.0794798659
C       -0.5921680293   -0.1967527653   -0.6712287719
H       -1.2084826672    0.7354079129   -0.3831850327
H        0.4190942820   -2.1313572101   -1.2563525216
C        0.5254861690    1.3135017600    1.2670983350
N        1.1293545163    1.5016155888    2.1231478572
6    
Image 7/11, Energy =  -168.9623357183 (+56.434 kcal/mol)
C       -0.2611085819   -1.1735894076   -0.9885083857
C       -0.6182629913   -0.1197160187   -0.6017857828
H       -1.3003743476    0.7895562077   -0.4994546480
H        0.5344464003   -1.9944185493   -1.0719128702
C        0.5085840609    1.2273422717    1.1516980674
N        1.1367154595    1.2708254909    2.0099636140
6    
Image 8/11, Energy =  -168.9565690017 (+60.053 kcal/mol)
C       -0.2622320619   -1.1298934199   -0.8879670683
C       -0.6107926189   -0.0035822163   -0.4995453197
H       -1.3439264756    0.8327958840   -0.6036135013
H        0.6366654637   -1.8077394875   -0.8616055350
C        0.4711087375    1.0866878693    1.0018648130
N        1.1091769500    1.0217313705    1.8508666165
6    
Image 9/11, Energy =  -168.9819533368 (+44.124 kcal/mol)
C       -0.2746030481   -1.1059689222   -0.8925492993
C       -0.5357103386    0.1307600677   -0.3775457406
H       -1.3140790924    0.8500380452   -0.6456154498
H        0.6676450487   -1.6380891254   -0.6594607769
C        0.3977120850    0.8439232528    0.8743076868
N        1.0590353507    0.9193366713    1.7008635799
6    
Image 10/11, Energy =  -169.0437609545 (+5.339 kcal/mol)
C       -0.2721093513   -1.0384613434   -0.9953339881
C       -0.4664498990    0.1336943575   -0.3047184047
H       -1.3026915424    0.8069996864   -0.5503883163
H        0.6404231461   -1.5232274468   -0.5526624607
C        0.3524169885    0.6272448767    0.7650856657
N        1.0484106581    0.9937498643    1.6380174988
