6    
Image 0/11, Energy =  -169.0522692293 (+0.349 kcal/mol)
C       -0.3689809232   -1.4576547332   -1.3858823910
C       -0.1536196575   -0.5941379364   -0.5627748996
H        0.0498937432    0.2058682499    0.1931202386
H       -0.5557149982   -2.2230003307   -2.1042277546
C        0.4068909404    1.6172446315    1.5286738868
N        0.6215308952    2.4516801189    2.3310909145
6    
Image 1/11, Energy =  -169.0528250674 (+0.000 kcal/mol)
C       -0.3466156807   -1.4529214454   -1.3641434957
C       -0.2748802471   -0.5274524268   -0.6053722788
H       -0.1436771372    0.2863676576    0.1024914725
H       -0.3914158345   -2.2749337253   -2.0148341830
C        0.3843622196    1.6346035327    1.5152881167
N        0.7722267122    2.3343364077    2.3665703846
6    
Image 2/11, Energy =  -169.0507456305 (+1.305 kcal/mol)
C       -0.3211262721   -1.4399149484   -1.3311542639
C       -0.3932247233   -0.4598603215   -0.6466920933
H       -0.3349714868    0.3860681388    0.0218482952
H       -0.2244179325   -2.3094695505   -1.9066322366
C        0.3673339896    1.6397594742    1.4898967023
N        0.9064064574    2.1834172268    2.3727336202
6    
Image 3/11, Energy =  -169.0474998660 (+3.342 kcal/mol)
C       -0.2926159517   -1.4118712976   -1.2817347368
C       -0.5016317634   -0.3946610609   -0.6883513712
H       -0.5268261609    0.4820969407   -0.0683085239
H       -0.0594792574   -2.3095963642   -1.7673779060
C        0.3631150546    1.6291254021    1.4559607018
N        1.0174380613    2.0049063813    2.3498118389
6    
Image 4/11, Energy =  -169.0431276610 (+6.085 kcal/mol)
C       -0.2600367035   -1.3672697163   -1.2161810235
C       -0.5992280051   -0.3316679895   -0.7246188220
H       -0.7212030581    0.5714322158   -0.1702439625
H        0.1011580816   -2.2714680931   -1.5985029697
C        0.3748053583    1.5914952285    1.4098241413
N        1.1045042731    1.8074783671    2.2997226421
6    
Image 5/11, Energy =  -169.0375422672 (+9.590 kcal/mol)
C       -0.2267830706   -1.3038399191   -1.1374493904
C       -0.6817625030   -0.2686389399   -0.7512598474
H       -0.9132395232    0.6519039081   -0.2818834834
H        0.2539391944   -2.1935371269   -1.4021056741
C        0.4009289605    1.5114150926    1.3462876730
N        1.1669169045    1.6026969579    2.2264107249
6    
Image 6/11, Energy =  -169.0294837843 (+14.647 kcal/mol)
C       -0.2041104178   -1.2232371690   -1.0552863392
C       -0.7364930015   -0.1983096020   -0.7549085623
H       -1.1011985756    0.7212826952   -0.4023646310
H        0.3989633589   -2.0672015555   -1.1754018372
C        0.4350542663    1.3668095157    1.2548833016
N        1.2077843352    1.4006560979    2.1330780765
6    
Image 7/11, Energy =  -169.0131498113 (+24.897 kcal/mol)
C       -0.2147215856   -1.1485785348   -1.0063575250
C       -0.7196988514   -0.1047956886   -0.6891163567
H       -1.2631337460    0.7668811569   -0.5180264344
H        0.5198986393   -1.8893198609   -0.9330341678
C        0.4630743996    1.1449131831    1.1280529288
N        1.2145811652    1.2308997263    2.0184815298
6    
Image 8/11, Energy =  -168.9961699295 (+35.552 kcal/mol)
C       -0.2577831874   -1.1071028745   -1.0107732340
C       -0.6115581512    0.0103219371   -0.5314479481
H       -1.3417106633    0.7715707440   -0.5878869632
H        0.5835110926   -1.7165445248   -0.7496238135
C        0.4600491168    0.9062704703    0.9902273508
N        1.1674918337    1.1354842435    1.8895045930
6    
Image 9/11, Energy =  -169.0187544424 (+21.380 kcal/mol)
C       -0.2730995670   -1.0766617812   -1.0062835662
C       -0.5120278677    0.0903346940   -0.3886203356
H       -1.3246996733    0.7712105190   -0.5810621535
H        0.6020979211   -1.6516434937   -0.6849575247
C        0.4088319643    0.7791533308    0.8841262973
N        1.0988972619    1.0876066983    1.7767972458
6    
Image 10/11, Energy =  -169.0437609545 (+5.688 kcal/mol)
C       -0.2721093513   -1.0384613434   -0.9953339881
C       -0.4664498990    0.1336943575   -0.3047184047
H       -1.3026915424    0.8069996864   -0.5503883163
H        0.6404231461   -1.5232274468   -0.5526624607
C        0.3524169885    0.6272448767    0.7650856657
N        1.0484106581    0.9937498643    1.6380174988
