3    
Image 0/21, Energy =   -93.4092025797 (+13.416 kcal/mol)
C       -0.7519862184   -0.8272338399    0.0000000000
N        0.0394753354    0.0434721365    0.0000000000
H        0.7125108830    0.7837617034    0.0000000000
3    
Image 1/21, Energy =   -93.4062893778 (+15.244 kcal/mol)
C       -0.6803800294   -0.8658094644    0.0000000000
N       -0.0857262249    0.1578563606    0.0000000000
H        0.7661065251    0.7079536428    0.0000000000
3    
Image 2/21, Energy =   -93.4001888536 (+19.072 kcal/mol)
C       -0.5988305100   -0.8565368560   -0.0000000000
N       -0.1674330001    0.2475429648    0.0000000000
H        0.7662631075    0.6089944742   -0.0000000000
3    
Image 3/21, Energy =   -93.3911204094 (+24.763 kcal/mol)
C       -0.5114322254   -0.8326467243    0.0000000000
N       -0.2403078226    0.3279079997   -0.0000000000
H        0.7517394500    0.5047389631   -0.0000000000
3    
Image 4/21, Energy =   -93.3716289514 (+36.994 kcal/mol)
C       -0.3273505575   -0.7689166453    0.0000000000
N       -0.3984081834    0.4295420995   -0.0000000000
H        0.7257586123    0.3393749602   -0.0000000000
3    
Image 5/21, Energy =   -93.3499871948 (+50.574 kcal/mol)
C       -0.2653707692   -0.7850152379   -0.0000000000
N       -0.5349330291    0.3848186531    0.0000000000
H        0.8003033339    0.4001976097   -0.0000000000
3    
Image 6/21, Energy =   -93.3204318124 (+69.121 kcal/mol)
C       -0.2142080540   -0.7985674637   -0.0000000000
N       -0.6691104316    0.3226162506    0.0000000000
H        0.8833176589    0.4759526934    0.0000000000
3    
Image 7/21, Energy =   -93.3109109101 (+75.095 kcal/mol)
C       -0.1657007808   -0.7845648150   -0.0000000000
N       -0.7441880340    0.2901481909    0.0000000000
H        0.9098879677    0.4944169547    0.0000000000
3    
Image 8/21, Energy =   -93.3335713223 (+60.875 kcal/mol)
C       -0.1185772391   -0.7008852226    0.0000000000
N       -0.7423169606    0.3185638537   -0.0000000000
H        0.8608939265    0.3823231217   -0.0000000000
3    
Image 9/21, Energy =   -93.3563189508 (+46.601 kcal/mol)
C       -0.0458265459   -0.6057867378   -0.0000000000
N       -0.7512681777    0.3463009867   -0.0000000000
H        0.7970950117    0.2594877910   -0.0000000000
3    
Image 10/21, Energy =   -93.3691092379 (+38.575 kcal/mol)
C        0.0462965998   -0.5023828064    0.0000000000
N       -0.8590828032    0.2466521905    0.0000000000
H        0.8127863572    0.2557318739    0.0000000000
3    
Image 11/21, Energy =   -93.3871279747 (+27.268 kcal/mol)
C        0.1016010039   -0.3810153456    0.0000000000
N       -0.9619301000    0.0747861474   -0.0000000000
H        0.8603294422    0.3062315703   -0.0000000000
3    
Image 12/21, Energy =   -93.4054296880 (+15.784 kcal/mol)
C        0.1255635895   -0.2857803281   -0.0000000000
N       -1.0198376316   -0.1339224172    0.0000000000
H        0.8942726403    0.4197042977    0.0000000000
3    
Image 13/21, Energy =   -93.4161753313 (+9.041 kcal/mol)
C        0.1276126548   -0.2120022975   -0.0000000000
N       -1.0267361746   -0.3140692827   -0.0000000000
H        0.8991227683    0.5260723995   -0.0000000000
3    
Image 14/21, Energy =   -93.4220721512 (+5.340 kcal/mol)
C        0.1048543539   -0.1440073134    0.0000000000
N       -1.0104257513   -0.4947983944   -0.0000000000
H        0.9055699699    0.6388053143   -0.0000000000
3    
Image 15/21, Energy =   -93.4254440769 (+3.224 kcal/mol)
C        0.0817836898   -0.0867270462    0.0000000000
N       -0.9505184168   -0.6320115202   -0.0000000000
H        0.8687345712    0.7187380959   -0.0000000000
3    
Image 16/21, Energy =   -93.4243890276 (+3.886 kcal/mol)
C        0.0403132518   -0.0349862009    0.0000000000
N       -0.8757252188   -0.7742767271   -0.0000000000
H        0.8354118180    0.8092626769   -0.0000000000
3    
Image 17/21, Energy =   -93.4273299728 (+2.041 kcal/mol)
C        0.0961224564   -0.0624455854   -0.0000000000
N       -0.9070392770   -0.6402889376    0.0000000000
H        0.8109171571    0.7027335829   -0.0000000000
3    
Image 18/21, Energy =   -93.4171611016 (+8.422 kcal/mol)
C        0.1436288929   -0.1142142641    0.0000000000
N       -0.9412118388   -0.5166253709    0.0000000000
H        0.7975812248    0.6308381375    0.0000000000
3    
Image 19/21, Energy =   -93.4280689114 (+1.577 kcal/mol)
C        0.0862506604   -0.0430205973   -0.0000000000
N       -0.8818576938   -0.6772432592    0.0000000000
H        0.7956074782    0.7202627667    0.0000000000
3    
Image 20/21, Energy =   -93.4305823703 (+0.000 kcal/mol)
C        0.0194260556    0.0213642891    0.0000000000
N       -0.7589320377   -0.8347584640    0.0000000000
H        0.7395059821    0.8133941749    0.0000000000
