3    
Image 0/21, Energy =   -93.4092025797 (+13.417 kcal/mol)
C       -0.7519862184   -0.8272338399    0.0000000000
N        0.0394753354    0.0434721365    0.0000000000
H        0.7125108830    0.7837617034    0.0000000000
3    
Image 1/21, Energy =   -93.4079448127 (+14.206 kcal/mol)
C       -0.6379238913   -0.9043313236    0.0000000000
N       -0.0527281780    0.1168355882    0.0000000000
H        0.6906359625    0.7875407856   -0.0000000000
3    
Image 2/21, Energy =   -93.4040664801 (+16.640 kcal/mol)
C       -0.4751809991   -0.9650989781    0.0000000000
N       -0.1570379481    0.1730484221   -0.0000000000
H        0.6321530677    0.7921194055   -0.0000000000
3    
Image 3/21, Energy =   -93.3980199090 (+20.434 kcal/mol)
C       -0.3679832118   -0.9617161833   -0.0000000000
N       -0.2461104246    0.2200807590   -0.0000000000
H        0.6140020856    0.7416712279   -0.0000000000
3    
Image 4/21, Energy =   -93.3862550765 (+27.816 kcal/mol)
C       -0.2534333238   -0.9071680415   -0.0000000000
N       -0.3579132009    0.2858922817   -0.0000000000
H        0.6112904793    0.6212968144   -0.0000000000
3    
Image 5/21, Energy =   -93.3742456695 (+35.352 kcal/mol)
C       -0.1533513142   -0.8291455828   -0.0000000000
N       -0.4535781188    0.3353801216   -0.0000000000
H        0.6069021282    0.4937941833   -0.0000000000
3    
Image 6/21, Energy =   -93.3639134572 (+41.836 kcal/mol)
C       -0.0834897324   -0.7472867475   -0.0000000000
N       -0.5446865005    0.3601419367   -0.0000000000
H        0.6281451947    0.3871810086    0.0000000000
3    
Image 7/21, Energy =   -93.3552173782 (+47.293 kcal/mol)
C       -0.0251172653   -0.6401321779   -0.0000000000
N       -0.6887174399    0.3492472228   -0.0000000000
H        0.7138033543    0.2909364351    0.0000000000
3    
Image 8/21, Energy =   -93.3572165548 (+46.038 kcal/mol)
C       -0.0120691232   -0.5975824772   -0.0000000000
N       -0.7441023762    0.3357577778   -0.0000000000
H        0.7561221875    0.2618832419    0.0000000000
3    
Image 9/21, Energy =   -93.3738754475 (+35.585 kcal/mol)
C        0.0015304168   -0.4880974616   -0.0000000000
N       -0.8640236768    0.3018336760   -0.0000000000
H        0.8624517611    0.1863252378    0.0000000000
3    
Image 10/21, Energy =   -93.4067212338 (+14.974 kcal/mol)
C        0.0130153760   -0.3125265025   -0.0000000000
N       -1.0109872827    0.2339271354   -0.0000000000
H        0.9979365249    0.0786883019    0.0000000000
3    
Image 11/21, Energy =   -93.4253686810 (+3.272 kcal/mol)
C        0.0192963275   -0.1495158337   -0.0000000000
N       -1.0926994654    0.1695078450    0.0000000000
H        1.0733750296   -0.0199036714    0.0000000000
3    
Image 12/21, Energy =   -93.4305703984 (+0.008 kcal/mol)
C        0.0278065758    0.0110465519    0.0000000000
N       -1.1187071238   -0.1517116704   -0.0000000000
H        1.0908757233    0.1406724326    0.0000000000
3    
Image 13/21, Energy =   -93.4305790761 (+0.003 kcal/mol)
C        0.0273066210    0.0089208701    0.0000000000
N       -1.1060290088   -0.2251162807    0.0000000000
H        1.0786913129    0.2161976680    0.0000000000
3    
Image 14/21, Energy =   -93.4305823936 (+0.001 kcal/mol)
C        0.0266758433    0.0118536561    0.0000000000
N       -1.0558456354   -0.3993432477    0.0000000000
H        1.0291331982    0.3874722795    0.0000000000
3    
Image 15/21, Energy =   -93.4305829853 (+0.000 kcal/mol)
C        0.0250975687    0.0146419849    0.0000000000
N       -0.9948859532   -0.5329167617   -0.0000000000
H        0.9697646571    0.5182428059   -0.0000000000
3    
Image 16/21, Energy =   -93.4305820319 (+0.001 kcal/mol)
C        0.0227528867    0.0184485057    0.0000000000
N       -0.9246873447   -0.6466128123   -0.0000000000
H        0.9019245867    0.6281271031   -0.0000000000
3    
Image 17/21, Energy =   -93.4305832416 (+0.000 kcal/mol)
C        0.0217920010    0.0192452789   -0.0000000000
N       -0.8540160415   -0.7378629410    0.0000000000
H        0.8322247691    0.7185920419   -0.0000000000
3    
Image 18/21, Energy =   -93.4305821954 (+0.001 kcal/mol)
C        0.0237762391    0.0170442701   -0.0000000000
N       -0.9512167415   -0.6080011332    0.0000000000
H        0.9274322248    0.5909085818    0.0000000000
3    
Image 19/21, Energy =   -93.4305806633 (+0.002 kcal/mol)
C        0.0204014712    0.0209106277   -0.0000000000
N       -0.8736782364   -0.7145298695    0.0000000000
H        0.8532738600    0.6935803639    0.0000000000
3    
Image 20/21, Energy =   -93.4305823703 (+0.001 kcal/mol)
C        0.0194260556    0.0213642891    0.0000000000
N       -0.7589320377   -0.8347584640    0.0000000000
H        0.7395059821    0.8133941749    0.0000000000
