3    
Image 0/21, Energy =   -93.4092025797 (+13.416 kcal/mol)
C       -0.7519862184   -0.8272338399    0.0000000000
N        0.0394753354    0.0434721365    0.0000000000
H        0.7125108830    0.7837617034    0.0000000000
3    
Image 1/21, Energy =   -93.4060468638 (+15.396 kcal/mol)
C       -0.6624050069   -0.8669920869   -0.0000000000
N       -0.0909677005    0.1648844433   -0.0000000000
H        0.7533700682    0.7021225924   -0.0000000000
3    
Image 2/21, Energy =   -93.3986295583 (+20.051 kcal/mol)
C       -0.5350142584   -0.8857794086    0.0000000000
N       -0.1990993343    0.2537928501    0.0000000000
H        0.7340816923    0.6320029680    0.0000000000
3    
Image 3/21, Energy =   -93.3936487872 (+23.176 kcal/mol)
C       -0.4543414063   -0.8885035746    0.0000000000
N       -0.2540854915    0.2872025517    0.0000000000
H        0.7084063754    0.6013181072   -0.0000000000
3    
Image 4/21, Energy =   -93.3842519694 (+29.073 kcal/mol)
C       -0.3171409209   -0.8719998423    0.0000000000
N       -0.3462457908    0.3294048670   -0.0000000000
H        0.6633636698    0.5426101295   -0.0000000000
3    
Image 5/21, Energy =   -93.3735898942 (+35.763 kcal/mol)
C       -0.1853807023   -0.8176357207    0.0000000000
N       -0.4445637838    0.3580900016   -0.0000000000
H        0.6299346342    0.4595618030   -0.0000000000
3    
Image 6/21, Energy =   -93.3637461262 (+41.940 kcal/mol)
C       -0.0926209622   -0.7463518296   -0.0000000000
N       -0.5413616279    0.3705131290   -0.0000000000
H        0.6339751421    0.3758533265   -0.0000000000
3    
Image 7/21, Energy =   -93.3559083447 (+46.859 kcal/mol)
C       -0.0393276813   -0.6687879521   -0.0000000000
N       -0.6476430733    0.3612239834   -0.0000000000
H        0.6869575498    0.3075861420   -0.0000000000
3    
Image 8/21, Energy =   -93.3569081810 (+46.231 kcal/mol)
C       -0.0178074771   -0.6023480192   -0.0000000000
N       -0.7380969940    0.3415539146   -0.0000000000
H        0.7558798551    0.2608271832    0.0000000000
3    
Image 9/21, Energy =   -93.3738933675 (+35.573 kcal/mol)
C        0.0045095921   -0.4896379189   -0.0000000000
N       -0.8671236401    0.2970002987    0.0000000000
H        0.8626179899    0.1926704395    0.0000000000
3    
Image 10/21, Energy =   -93.4055282575 (+15.722 kcal/mol)
C        0.0205536799   -0.3207899113   -0.0000000000
N       -1.0125915389    0.2124747459   -0.0000000000
H        0.9920487827    0.1083629476   -0.0000000000
3    
Image 11/21, Energy =   -93.4219846410 (+5.395 kcal/mol)
C        0.0292284070   -0.1903397413    0.0000000000
N       -1.0884252632    0.1145816112   -0.0000000000
H        1.0591949383    0.0758012826    0.0000000000
3    
Image 12/21, Energy =   -93.4297671991 (+0.512 kcal/mol)
C        0.0391982480   -0.0530630296    0.0000000000
N       -1.1168454843   -0.1548724222   -0.0000000000
H        1.0776319179    0.2079555350    0.0000000000
3    
Image 13/21, Energy =   -93.4301563790 (+0.267 kcal/mol)
C        0.0379735048   -0.0352969931    0.0000000000
N       -1.1060081863   -0.2221015958    0.0000000000
H        1.0680149002    0.2574095606   -0.0000000000
3    
Image 14/21, Energy =   -93.4304666613 (+0.073 kcal/mol)
C        0.0358526620   -0.0091724190    0.0000000000
N       -1.0559225817   -0.3997149982    0.0000000000
H        1.0200470279    0.4088797543   -0.0000000000
3    
Image 15/21, Energy =   -93.4305431928 (+0.025 kcal/mol)
C        0.0319216354    0.0025085828    0.0000000000
N       -0.9960060354   -0.5313895990   -0.0000000000
H        0.9640753602    0.5288615782   -0.0000000000
3    
Image 16/21, Energy =   -93.4305688135 (+0.009 kcal/mol)
C        0.0283775015    0.0117175094   -0.0000000000
N       -0.9256182311   -0.6446372853   -0.0000000000
H        0.8972428634    0.6328954642   -0.0000000000
3    
Image 17/21, Energy =   -93.4305775051 (+0.003 kcal/mol)
C        0.0241436672    0.0171881102   -0.0000000000
N       -0.8526065645   -0.7376853227    0.0000000000
H        0.8284661294    0.7204759513   -0.0000000000
3    
Image 18/21, Energy =   -93.4305117524 (+0.044 kcal/mol)
C        0.0318626607    0.0011289382   -0.0000000000
N       -0.9599865661   -0.5943943167    0.0000000000
H        0.9281191511    0.5932392412    0.0000000000
3    
Image 19/21, Energy =   -93.4305723083 (+0.006 kcal/mol)
C        0.0262139223    0.0131270185   -0.0000000000
N       -0.8763227781   -0.7109225534    0.0000000000
H        0.8501157533    0.6977692292    0.0000000000
3    
Image 20/21, Energy =   -93.4305823703 (+0.000 kcal/mol)
C        0.0194260556    0.0213642891    0.0000000000
N       -0.7589320377   -0.8347584640    0.0000000000
H        0.7395059821    0.8133941749    0.0000000000
