3    
Image 0/21, Energy =   -93.4092025797 (+13.417 kcal/mol)
C       -0.7519862184   -0.8272338399    0.0000000000
N        0.0394753354    0.0434721365    0.0000000000
H        0.7125108830    0.7837617034    0.0000000000
3    
Image 1/21, Energy =   -93.4090821244 (+13.492 kcal/mol)
C       -0.6014680140   -0.9399206026    0.0000000000
N        0.0029487480    0.0687099082    0.0000000000
H        0.5985099361    0.8712720839    0.0000000000
3    
Image 2/21, Energy =   -93.4059740677 (+15.442 kcal/mol)
C       -0.4311370261   -1.0014142702    0.0000000000
N       -0.1290734990    0.1394448556   -0.0000000000
H        0.5601004887    0.8620343908   -0.0000000000
3    
Image 3/21, Energy =   -93.3983150359 (+20.249 kcal/mol)
C       -0.3563541005   -0.9684942719   -0.0000000000
N       -0.2460487447    0.2143001949   -0.0000000000
H        0.6023014345    0.7542278898   -0.0000000000
3    
Image 4/21, Energy =   -93.3862550765 (+27.816 kcal/mol)
C       -0.2534333238   -0.9071680415   -0.0000000000
N       -0.3579132009    0.2858922817   -0.0000000000
H        0.6112904793    0.6212968144   -0.0000000000
3    
Image 5/21, Energy =   -93.3742958533 (+35.321 kcal/mol)
C       -0.1600718516   -0.8284024314   -0.0000000000
N       -0.4506947574    0.3387139479   -0.0000000000
H        0.6107239197    0.4897460081    0.0000000000
3    
Image 6/21, Energy =   -93.3639011085 (+41.844 kcal/mol)
C       -0.0844817243   -0.7468408895   -0.0000000000
N       -0.5437956268    0.3617998274   -0.0000000000
H        0.6282413537    0.3850915160    0.0000000000
3    
Image 7/21, Energy =   -93.3552129888 (+47.296 kcal/mol)
C       -0.0252881397   -0.6422516464   -0.0000000000
N       -0.6857178388    0.3490383094   -0.0000000000
H        0.7109784267    0.2932775301    0.0000000000
3    
Image 8/21, Energy =   -93.3575576168 (+45.824 kcal/mol)
C       -0.0111892400   -0.5936644176   -0.0000000000
N       -0.7488148075    0.3338773899   -0.0000000000
H        0.7599598550    0.2598698857    0.0000000000
3    
Image 9/21, Energy =   -93.3744553917 (+35.221 kcal/mol)
C        0.0067644636   -0.4857617879   -0.0000000000
N       -0.8704121696    0.2928754694   -0.0000000000
H        0.8636233601    0.1929783845    0.0000000000
3    
Image 10/21, Energy =   -93.4069851485 (+14.808 kcal/mol)
C        0.0172766846   -0.3104996488   -0.0000000000
N       -1.0154192662    0.2159061829   -0.0000000000
H        0.9981051312    0.0947114085    0.0000000000
3    
Image 11/21, Energy =   -93.4258402161 (+2.976 kcal/mol)
C        0.0225147119   -0.1423091985   -0.0000000000
N       -1.0982698831    0.1427983717   -0.0000000000
H        1.0756880843   -0.0003785834    0.0000000000
3    
Image 12/21, Energy =   -93.4305779040 (+0.003 kcal/mol)
C        0.0296077541   -0.0005358091    0.0000000000
N       -1.1220374863   -0.1269935652   -0.0000000000
H        1.0923814893    0.1275418737   -0.0000000000
3    
Image 13/21, Energy =   -93.4305808610 (+0.001 kcal/mol)
C        0.0276683286    0.0085809647    0.0000000000
N       -1.1060615245   -0.2243393395    0.0000000000
H        1.0783403741    0.2157569910    0.0000000000
3    
Image 14/21, Energy =   -93.4305811928 (+0.001 kcal/mol)
C        0.0270142633    0.0117561996    0.0000000000
N       -1.0572992522   -0.3961114534    0.0000000000
H        1.0302278665    0.3843301897   -0.0000000000
3    
Image 15/21, Energy =   -93.4305829853 (+0.000 kcal/mol)
C        0.0250975687    0.0146419849    0.0000000000
N       -0.9948859532   -0.5329167617   -0.0000000000
H        0.9697646571    0.5182428059   -0.0000000000
3    
Image 16/21, Energy =   -93.4305820319 (+0.001 kcal/mol)
C        0.0227528867    0.0184485057    0.0000000000
N       -0.9246873447   -0.6466128123   -0.0000000000
H        0.9019245867    0.6281271031   -0.0000000000
3    
Image 17/21, Energy =   -93.4305832416 (+0.000 kcal/mol)
C        0.0217920010    0.0192452789   -0.0000000000
N       -0.8540160415   -0.7378629410    0.0000000000
H        0.8322247691    0.7185920419   -0.0000000000
3    
Image 18/21, Energy =   -93.4305829162 (+0.000 kcal/mol)
C        0.0250702101    0.0148859664   -0.0000000000
N       -0.9465109084   -0.6144775475    0.0000000000
H        0.9214176791    0.5995347210    0.0000000000
3    
Image 19/21, Energy =   -93.4305806633 (+0.002 kcal/mol)
C        0.0204014712    0.0209106277   -0.0000000000
N       -0.8736782364   -0.7145298695    0.0000000000
H        0.8532738600    0.6935803639    0.0000000000
3    
Image 20/21, Energy =   -93.4305823703 (+0.001 kcal/mol)
C        0.0194260556    0.0213642891    0.0000000000
N       -0.7589320377   -0.8347584640    0.0000000000
H        0.7395059821    0.8133941749    0.0000000000
