3    
Image 0/21, Energy =   -93.4092025797 (+13.417 kcal/mol)
C       -0.7519862184   -0.8272338399    0.0000000000
N        0.0394753354    0.0434721365    0.0000000000
H        0.7125108830    0.7837617034    0.0000000000
3    
Image 1/21, Energy =   -93.4067119574 (+14.979 kcal/mol)
C       -0.6481476235   -0.8840750531   -0.0000000000
N       -0.0808979477    0.1493805821   -0.0000000000
H        0.7290268890    0.7347247131   -0.0000000000
3    
Image 2/21, Energy =   -93.4016257005 (+18.171 kcal/mol)
C       -0.5046272318   -0.9296134980    0.0000000000
N       -0.1814038307    0.2111056933    0.0000000000
H        0.6859764291    0.7185425323   -0.0000000000
3    
Image 3/21, Energy =   -93.3967366285 (+21.239 kcal/mol)
C       -0.4081335153   -0.9350423153    0.0000000000
N       -0.2476141171    0.2428385452   -0.0000000000
H        0.6556959061    0.6922425500   -0.0000000000
3    
Image 4/21, Energy =   -93.3862276887 (+27.834 kcal/mol)
C       -0.2690024234   -0.9023359874    0.0000000000
N       -0.3527262982    0.2922762546   -0.0000000000
H        0.6216783428    0.6100807645   -0.0000000000
3    
Image 5/21, Energy =   -93.3742871546 (+35.326 kcal/mol)
C       -0.1573498082   -0.8279840898   -0.0000000000
N       -0.4506694902    0.3368517343    0.0000000000
H        0.6080015933    0.4911553233   -0.0000000000
3    
Image 6/21, Energy =   -93.3639515237 (+41.812 kcal/mol)
C       -0.0797894838   -0.7460186566   -0.0000000000
N       -0.5441124149    0.3568732668   -0.0000000000
H        0.6238840798    0.3891666515   -0.0000000000
3    
Image 7/21, Energy =   -93.3552158505 (+47.294 kcal/mol)
C       -0.0253068545   -0.6395120361   -0.0000000000
N       -0.6904739591    0.3506625078   -0.0000000000
H        0.7157471920    0.2888888536    0.0000000000
3    
Image 8/21, Energy =   -93.3569642160 (+46.197 kcal/mol)
C       -0.0182007503   -0.5993248172   -0.0000000000
N       -0.7362341570    0.3453436982   -0.0000000000
H        0.7543843103    0.2540287346    0.0000000000
3    
Image 9/21, Energy =   -93.3735716115 (+35.775 kcal/mol)
C        0.0021084667   -0.4903151097   -0.0000000000
N       -0.8626732039    0.3072645207   -0.0000000000
H        0.8605410471    0.1831008158    0.0000000000
3    
Image 10/21, Energy =   -93.4065907286 (+15.056 kcal/mol)
C        0.0107486153   -0.3127652132   -0.0000000000
N       -1.0079300143    0.2427739451    0.0000000000
H        0.9971724174    0.0700684582   -0.0000000000
3    
Image 11/21, Energy =   -93.4253113556 (+3.308 kcal/mol)
C        0.0196271395   -0.1498421591   -0.0000000000
N       -1.0913842085    0.1742182944   -0.0000000000
H        1.0717366766   -0.0243026104   -0.0000000000
3    
Image 12/21, Energy =   -93.4304417982 (+0.089 kcal/mol)
C        0.0261180448    0.0280760821    0.0000000000
N       -1.1177725034   -0.1536356651   -0.0000000000
H        1.0916390358    0.1255616494    0.0000000000
3    
Image 13/21, Energy =   -93.4303158846 (+0.168 kcal/mol)
C        0.0210031202    0.0386315392    0.0000000000
N       -1.1018006866   -0.2413560426    0.0000000000
H        1.0807764217    0.2027160031   -0.0000000000
3    
Image 14/21, Energy =   -93.4304608872 (+0.077 kcal/mol)
C        0.0186516485    0.0314913703    0.0000000000
N       -1.0498176226   -0.4125406117    0.0000000000
H        1.0311403269    0.3810258532    0.0000000000
3    
Image 15/21, Energy =   -93.4305366923 (+0.029 kcal/mol)
C        0.0188850269    0.0261228078    0.0000000000
N       -0.9903968512   -0.5401953671   -0.0000000000
H        0.9714996916    0.5140391705   -0.0000000000
3    
Image 16/21, Energy =   -93.4305664929 (+0.011 kcal/mol)
C        0.0189825318    0.0225557777    0.0000000000
N       -0.9237882351   -0.6496967191   -0.0000000000
H        0.9048033685    0.6271053881   -0.0000000000
3    
Image 17/21, Energy =   -93.4305832416 (+0.000 kcal/mol)
C        0.0217920010    0.0192452789   -0.0000000000
N       -0.8540160415   -0.7378629410    0.0000000000
H        0.8322247691    0.7185920419   -0.0000000000
3    
Image 18/21, Energy =   -93.4305396019 (+0.027 kcal/mol)
C        0.0197439463    0.0261129621   -0.0000000000
N       -0.9503660722   -0.6085317051    0.0000000000
H        0.9306244930    0.5823711923    0.0000000000
3    
Image 19/21, Energy =   -93.4305707746 (+0.008 kcal/mol)
C        0.0180415188    0.0236677887   -0.0000000000
N       -0.8723919402   -0.7150717808    0.0000000000
H        0.8543530698    0.6913669910    0.0000000000
3    
Image 20/21, Energy =   -93.4305823703 (+0.001 kcal/mol)
C        0.0194260556    0.0213642891    0.0000000000
N       -0.7589320377   -0.8347584640    0.0000000000
H        0.7395059821    0.8133941749    0.0000000000
