3    
Image 0/21, Energy =   -93.4092025797 (+13.417 kcal/mol)
C       -0.7519862184   -0.8272338399    0.0000000000
N        0.0394753354    0.0434721365    0.0000000000
H        0.7125108830    0.7837617034    0.0000000000
3    
Image 1/21, Energy =   -93.4073481694 (+14.580 kcal/mol)
C       -0.6446535626   -0.8939557558   -0.0000000000
N       -0.0683988831    0.1336759865    0.0000000000
H        0.7130314946    0.7603155914   -0.0000000000
3    
Image 2/21, Energy =   -93.4029830170 (+17.319 kcal/mol)
C       -0.4924611684   -0.9462005456    0.0000000000
N       -0.1674358826    0.1908772124   -0.0000000000
H        0.6598424004    0.7553739713   -0.0000000000
3    
Image 3/21, Energy =   -93.3975079712 (+20.755 kcal/mol)
C       -0.3868939531   -0.9496937243    0.0000000000
N       -0.2454829502    0.2298634452   -0.0000000000
H        0.6323035953    0.7198698422   -0.0000000000
3    
Image 4/21, Energy =   -93.3862484654 (+27.820 kcal/mol)
C       -0.2549689412   -0.9063673347   -0.0000000000
N       -0.3572904961    0.2862637786   -0.0000000000
H        0.6122039831    0.6201245647   -0.0000000000
3    
Image 5/21, Energy =   -93.3742521234 (+35.348 kcal/mol)
C       -0.1526454539   -0.8299528909   -0.0000000000
N       -0.4546037812    0.3351151441   -0.0000000000
H        0.6072279354    0.4948620578   -0.0000000000
3    
Image 6/21, Energy =   -93.3639489437 (+41.814 kcal/mol)
C       -0.0814044489   -0.7487268772   -0.0000000000
N       -0.5461020776    0.3586871222   -0.0000000000
H        0.6274810953    0.3900676011   -0.0000000000
3    
Image 7/21, Energy =   -93.3552368122 (+47.281 kcal/mol)
C       -0.0259365361   -0.6366545940   -0.0000000000
N       -0.6923021976    0.3478656814   -0.0000000000
H        0.7182045394    0.2888346601    0.0000000000
3    
Image 8/21, Energy =   -93.3571420242 (+46.085 kcal/mol)
C       -0.0166626252   -0.5985861774   -0.0000000000
N       -0.7411982811    0.3393434146   -0.0000000000
H        0.7578084773    0.2592947323    0.0000000000
3    
Image 9/21, Energy =   -93.3736718478 (+35.712 kcal/mol)
C       -0.0016883249   -0.4899814851   -0.0000000000
N       -0.8617049121    0.3073299097   -0.0000000000
H        0.8633560968    0.1827080379    0.0000000000
3    
Image 10/21, Energy =   -93.4067079821 (+14.982 kcal/mol)
C        0.0104775770   -0.3131514341   -0.0000000000
N       -1.0097390924    0.2396341204    0.0000000000
H        0.9992406285    0.0736005112    0.0000000000
3    
Image 11/21, Energy =   -93.4254242252 (+3.237 kcal/mol)
C        0.0183194584   -0.1485063726   -0.0000000000
N       -1.0914993252    0.1746508747   -0.0000000000
H        1.0731571006   -0.0260627916   -0.0000000000
3    
Image 12/21, Energy =   -93.4304770773 (+0.067 kcal/mol)
C        0.0267193080    0.0239313462    0.0000000000
N       -1.1159591725   -0.1533324244   -0.0000000000
H        1.0892205066    0.1294041251    0.0000000000
3    
Image 13/21, Energy =   -93.4304552925 (+0.080 kcal/mol)
C        0.0256734288    0.0274444337    0.0000000000
N       -1.1020230932   -0.2332741466    0.0000000000
H        1.0763244730    0.2058254370    0.0000000000
3    
Image 14/21, Energy =   -93.4305347166 (+0.030 kcal/mol)
C        0.0226993973    0.0237061457    0.0000000000
N       -1.0523299051   -0.4057937928    0.0000000000
H        1.0296001878    0.3820667445    0.0000000000
3    
Image 15/21, Energy =   -93.4305650309 (+0.011 kcal/mol)
C        0.0217124827    0.0215815692    0.0000000000
N       -0.9925381524   -0.5367764831   -0.0000000000
H        0.9708083514    0.5151619624   -0.0000000000
3    
Image 16/21, Energy =   -93.4305777201 (+0.003 kcal/mol)
C        0.0214957366    0.0205009296    0.0000000000
N       -0.9237107243   -0.6475911353   -0.0000000000
H        0.9022080671    0.6270535103   -0.0000000000
3    
Image 17/21, Energy =   -93.4305832416 (+0.000 kcal/mol)
C        0.0217920010    0.0192452789   -0.0000000000
N       -0.8540160415   -0.7378629410    0.0000000000
H        0.8322247691    0.7185920419   -0.0000000000
3    
Image 18/21, Energy =   -93.4305617646 (+0.013 kcal/mol)
C        0.0196225530    0.0219315193   -0.0000000000
N       -0.9493336369   -0.6085964379    0.0000000000
H        0.9297091439    0.5866164848    0.0000000000
3    
Image 19/21, Energy =   -93.4305773293 (+0.004 kcal/mol)
C        0.0201366507    0.0219423009   -0.0000000000
N       -0.8737393359   -0.7150378656    0.0000000000
H        0.8536009334    0.6930569719    0.0000000000
3    
Image 20/21, Energy =   -93.4305823703 (+0.001 kcal/mol)
C        0.0194260556    0.0213642891    0.0000000000
N       -0.7589320377   -0.8347584640    0.0000000000
H        0.7395059821    0.8133941749    0.0000000000
