3    
Image 0/21, Energy =   -93.4092025797 (+13.416 kcal/mol)
C       -0.7519862184   -0.8272338399    0.0000000000
N        0.0394753354    0.0434721365    0.0000000000
H        0.7125108830    0.7837617034    0.0000000000
3    
Image 1/21, Energy =   -93.4064609358 (+15.136 kcal/mol)
C       -0.6777062907   -0.8590898191   -0.0000000000
N       -0.0807716183    0.1575548619    0.0000000000
H        0.7584830065    0.7015421662   -0.0000000000
3    
Image 2/21, Energy =   -93.4000644028 (+19.150 kcal/mol)
C       -0.5965000827   -0.8575824148   -0.0000000000
N       -0.1699130405    0.2488699590    0.0000000000
H        0.7664083630    0.6087169689   -0.0000000000
3    
Image 3/21, Energy =   -93.3909817257 (+24.850 kcal/mol)
C       -0.4933925140   -0.8439740194    0.0000000000
N       -0.2513926122    0.3255229919   -0.0000000000
H        0.7447726575    0.5184548872   -0.0000000000
3    
Image 4/21, Energy =   -93.3845988355 (+28.855 kcal/mol)
C       -0.4123324017   -0.8299733834    0.0000000000
N       -0.3073526669    0.3558266668    0.0000000000
H        0.7196724548    0.4741543002   -0.0000000000
3    
Image 5/21, Energy =   -93.3796918243 (+31.934 kcal/mol)
C       -0.3118952850   -0.8326369867   -0.0000000000
N       -0.3628368881    0.3667160522   -0.0000000000
H        0.6747320791    0.4659284217   -0.0000000000
3    
Image 6/21, Energy =   -93.3692722945 (+38.473 kcal/mol)
C       -0.1297395204   -0.7905587063    0.0000000000
N       -0.4676086668    0.3663316861    0.0000000000
H        0.5973464038    0.4242333290    0.0000000000
3    
Image 7/21, Energy =   -93.3636298288 (+42.013 kcal/mol)
C       -0.0798105887   -0.7429555191    0.0000000000
N       -0.5232143626    0.3749109534    0.0000000000
H        0.6030220453    0.3680491160    0.0000000000
3    
Image 8/21, Energy =   -93.3570865160 (+46.119 kcal/mol)
C       -0.0365908892   -0.6832129938    0.0000000000
N       -0.6162796494    0.3652328797    0.0000000000
H        0.6528630740    0.3179881829   -0.0000000000
3    
Image 9/21, Energy =   -93.3574048073 (+45.920 kcal/mol)
C       -0.0047361160   -0.5936164578   -0.0000000000
N       -0.7488939454    0.3296163193   -0.0000000000
H        0.7536245930    0.2640221859   -0.0000000000
3    
Image 10/21, Energy =   -93.3748138368 (+34.995 kcal/mol)
C        0.0088958827   -0.4842282258   -0.0000000000
N       -0.8736513414    0.2886590664   -0.0000000000
H        0.8647694433    0.1955868295   -0.0000000000
3    
Image 11/21, Energy =   -93.4032766865 (+17.135 kcal/mol)
C        0.0421320534   -0.3338985812    0.0000000000
N       -1.0168385184    0.1509514139   -0.0000000000
H        0.9747310388    0.1829657579    0.0000000000
3    
Image 12/21, Energy =   -93.4218563240 (+5.476 kcal/mol)
C        0.0682258972   -0.1826463441   -0.0000000000
N       -1.0901610656   -0.1136235979   -0.0000000000
H        1.0219264262    0.2962980820   -0.0000000000
3    
Image 13/21, Energy =   -93.4273585899 (+2.023 kcal/mol)
C        0.0687155858   -0.1000603055   -0.0000000000
N       -1.0670943574   -0.3308962963    0.0000000000
H        0.9983556706    0.4309644402    0.0000000000
3    
Image 14/21, Energy =   -93.4295843561 (+0.626 kcal/mol)
C        0.0575441308   -0.0429370980    0.0000000000
N       -1.0013766269   -0.5110274227   -0.0000000000
H        0.9438226851    0.5539601625   -0.0000000000
3    
Image 15/21, Energy =   -93.4302354320 (+0.218 kcal/mol)
C        0.0455512072   -0.0139784951   -0.0000000000
N       -0.9285472049   -0.6356570937   -0.0000000000
H        0.8830004846    0.6496210128   -0.0000000000
3    
Image 16/21, Energy =   -93.4304480829 (+0.084 kcal/mol)
C        0.0330307603    0.0126473313    0.0000000000
N       -0.8363766845   -0.7519666459   -0.0000000000
H        0.8033501613    0.7393084089   -0.0000000000
3    
Image 17/21, Energy =   -93.4299416195 (+0.402 kcal/mol)
C        0.0547377257   -0.0247661913   -0.0000000000
N       -0.9213804877   -0.6490955343    0.0000000000
H        0.8666465862    0.6738478736    0.0000000000
3    
Image 18/21, Energy =   -93.4292933019 (+0.809 kcal/mol)
C        0.0639221774   -0.0471253292    0.0000000000
N       -0.9672264285   -0.5772738905    0.0000000000
H        0.9032911255    0.6243930325    0.0000000000
3    
Image 19/21, Energy =   -93.4301323898 (+0.282 kcal/mol)
C        0.0498802058   -0.0126508600   -0.0000000000
N       -0.8962499808   -0.6889833384    0.0000000000
H        0.8463755144    0.7016193001    0.0000000000
3    
Image 20/21, Energy =   -93.4305823703 (+0.000 kcal/mol)
C        0.0194260556    0.0213642891    0.0000000000
N       -0.7589320377   -0.8347584640    0.0000000000
H        0.7395059821    0.8133941749    0.0000000000
