3    
Image 0/11, Energy =   -92.8148741520 (+8.372 kcal/mol)
C       -0.7423975972   -0.8166733305    0.0000000000
N        0.0415634192    0.0457411867    0.0000000000
H        0.7008341780    0.7709321438    0.0000000000
3    
Image 1/11, Energy =   -92.8091101166 (+11.989 kcal/mol)
C       -0.6794708004   -0.8629662743    0.0000000000
N       -0.0849880149    0.1551533082   -0.0000000000
H        0.7644588154    0.7078129661   -0.0000000000
3    
Image 2/11, Energy =   -92.7833386545 (+28.161 kcal/mol)
C       -0.5098941123   -0.8291740993   -0.0000000000
N       -0.2372109129    0.3260500567   -0.0000000000
H        0.7471050252    0.5031240426   -0.0000000000
3    
Image 3/11, Energy =   -92.7483830794 (+50.096 kcal/mol)
C       -0.3318790176   -0.7653802046    0.0000000000
N       -0.3946226351    0.4275382842   -0.0000000000
H        0.7265016526    0.3378419202   -0.0000000000
3    
Image 4/11, Energy =   -92.6922553902 (+85.316 kcal/mol)
C       -0.2159121012   -0.8137548373   -0.0000000000
N       -0.6692009256    0.3450057201    0.0000000000
H        0.8851130268    0.4687491172    0.0000000000
3    
Image 5/11, Energy =   -92.7430778326 (+53.425 kcal/mol)
C        0.0440492094   -0.4998058421    0.0000000000
N       -0.8544151035    0.2404775823   -0.0000000000
H        0.8103658940    0.2593282597    0.0000000000
3    
Image 6/11, Energy =   -92.7956735110 (+20.421 kcal/mol)
C        0.1261569086   -0.2787336556   -0.0000000000
N       -1.0151070613   -0.1429039346   -0.0000000000
H        0.8889501528    0.4216375901   -0.0000000000
3    
Image 7/11, Energy =   -92.8164815144 (+7.363 kcal/mol)
C        0.1255082194   -0.1448932065   -0.0000000000
N       -0.9850299526   -0.4628841846   -0.0000000000
H        0.8595217332    0.6077773911   -0.0000000000
3    
Image 8/11, Energy =   -92.8143983949 (+8.671 kcal/mol)
C        0.0392138708   -0.0333733562    0.0000000000
N       -0.8787686945   -0.7856838476   -0.0000000000
H        0.8395548236    0.8190572039   -0.0000000000
3    
Image 9/11, Energy =   -92.7239342939 (+65.438 kcal/mol)
C        0.1993771396   -0.0628103501   -0.0000000000
N       -0.9037005054   -0.4971646965    0.0000000000
H        0.7043233658    0.5599750465    0.0000000000
3    
Image 10/11, Energy =   -92.8282158336 (+0.000 kcal/mol)
C        0.0205094102    0.0225582817    0.0000000000
N       -0.7491564766   -0.8240073131    0.0000000000
H        0.7286470663    0.8014490314    0.0000000000
