6    
Climbing Image - Chain 47 Image 8 Energy  -168.9962144128 (+36.338 kcal/mol) RMSGrad 0.023 eV/Ang
C       -0.2428493331   -1.1177146619   -1.0088370354
C       -0.5989899752    0.0006117886   -0.5503326630
H       -1.3001075805    0.7868080910   -0.6172396416
H        0.5690044414   -1.7633688815   -0.7499186207
C        0.4440856191    0.9091544879    1.0117607768
N        1.1288568307    1.1845091767    1.9145671822
