3    
Iteration 0 Energy -92.72360563
C        1.4007098424   -0.4000191057    0.0015398648
N        0.2141796627   -0.4410039556    0.0013558703
H        0.9780462115    0.7323552964    0.0017565982
3    
Iteration 1 Energy -92.72459708
C        1.4011256064   -0.4001916361    0.0015398808
N        0.2141366221   -0.4405861947    0.0013559724
H        0.8682743075    0.7286058752    0.0017549888
3    
Iteration 1 Energy -92.72603130
C        1.4048935068   -0.4028035031    0.0015397535
N        0.2143753131   -0.4364386994    0.0013570837
H        0.8200607561    0.7020940320    0.0017410640
3    
Iteration 1 Energy -92.72818287
C        1.4074415563   -0.4073559030    0.0015389443
N        0.2163535963   -0.4324868112    0.0013583984
H        0.7622089947    0.7014229129    0.0017324368
3    
Iteration 1 Energy -92.73094782
C        1.4103854304   -0.4114988190    0.0015382991
N        0.2180578565   -0.4280244193    0.0013598055
H        0.7034485885    0.6887785826    0.0017205718
3    
Iteration 1 Energy -92.73420069
C        1.4133793692   -0.4159547380    0.0015375799
N        0.2198753499   -0.4235907985    0.0013612218
H        0.6425181414    0.6802636657    0.0017094593
3    
Iteration 1 Energy -92.73782351
C        1.4163824864   -0.4205715972    0.0015368204
N        0.2217800182   -0.4191619098    0.0013626498
H        0.5802669416    0.6737322009    0.0016986666
3    
Iteration 1 Energy -92.74173228
C        1.4193660991   -0.4253293590    0.0015360213
N        0.2237778535   -0.4147813023    0.0013640789
H        0.5169534988    0.6695505898    0.0016883290
3    
Iteration 1 Energy -92.74588175
C        1.4222867492   -0.4301874383    0.0015351872
N        0.2258902668   -0.4104408539    0.0013655138
H        0.4527981112    0.6671223713    0.0016783276
3    
Iteration 1 Energy -92.75024488
C        1.4250975506   -0.4351040664    0.0015343219
N        0.2281447954   -0.4060914961    0.0013669720
H        0.3879767951    0.6652679882    0.0016683751
3    
Iteration 1 Energy -92.75479045
C        1.4277533961   -0.4400457207    0.0015334274
N        0.2305663502   -0.4016714578    0.0013684728
H        0.3226808650    0.6627296299    0.0016581780
3    
Iteration 1 Energy -92.75947189
C        1.4302111286   -0.4449863200    0.0015325041
N        0.2331728892   -0.3971300362    0.0013700323
H        0.2571750186    0.6584919534    0.0016475100
3    
Iteration 1 Energy -92.76422628
C        1.4324295543   -0.4499032238    0.0015315520
N        0.2359744192   -0.3924352130    0.0013716603
H        0.1918110485    0.6518402565    0.0016362320
3    
Iteration 1 Energy -92.76898022
C        1.4343721894   -0.4547751746    0.0015305717
N        0.2389722344   -0.3875719709    0.0013733602
H        0.1270056942    0.6423125660    0.0016242916
3    
Iteration 1 Energy -92.77365819
C        1.4360110176   -0.4595823627    0.0015295636
N        0.2421583236   -0.3825382593    0.0013751318
H        0.0632041140    0.6296443400    0.0016116842
3    
Iteration 1 Energy -92.77819062
C        1.4373299597   -0.4643074232    0.0015285299
N        0.2455149962   -0.3773408613    0.0013769715
H        0.0008437241    0.6137229257    0.0015984374
3    
Iteration 1 Energy -92.78251956
C        1.4383272822   -0.4689365301    0.0015274745
N        0.2490148634   -0.3719917976    0.0013788706
H       -0.0596742180    0.5945506162    0.0015846239
3    
Iteration 1 Energy -92.78660120
C        1.4390161016   -0.4734601291    0.0015264013
N        0.2526217363   -0.3665055976    0.0013808211
H       -0.1180031247    0.5722154684    0.0015703066
3    
Iteration 1 Energy -92.79040578
C        1.4394228561   -0.4778731279    0.0015253153
N        0.2562925362   -0.3608973683    0.0013828131
H       -0.1738593999    0.5468667333    0.0015555657
3    
Iteration 1 Energy -92.79391577
C        1.4395839771   -0.4821745446    0.0015242223
N        0.2599802140   -0.3551817858    0.0013848356
H       -0.2270233443    0.5186966502    0.0015404850
3    
Iteration 1 Energy -92.79712342
C        1.4395414446   -0.4863667204    0.0015231279
N        0.2636371591   -0.3493726208    0.0013868778
H       -0.2773335795    0.4879244742    0.0015251471
3    
Iteration 1 Energy -92.80002824
C        1.4393379752   -0.4904542767    0.0015220377
N        0.2672187463   -0.3434828400    0.0013889290
H       -0.3246789839    0.4547854555    0.0015096339
3    
Iteration 1 Energy -92.80263495
C        1.4390128646   -0.4944430359    0.0015209549
N        0.2706861882   -0.3375248377    0.0013909820
H       -0.3689887948    0.4195212037    0.0014940076
3    
Iteration 1 Energy -92.80495186
C        1.4385995778   -0.4983391783    0.0015198833
N        0.2740079554   -0.3315106536    0.0013930284
H       -0.4102236371    0.3823726679    0.0014783400
3    
Iteration 1 Energy -92.80698964
C        1.4381239616   -0.5021485316    0.0015188250
N        0.2771607868   -0.3254522702    0.0013950616
H       -0.4483682490    0.3435757929    0.0014626955
3    
Iteration 1 Energy -92.80876047
C        1.4376044707   -0.5058762545    0.0015177820
N        0.2801290695   -0.3193616092    0.0013970753
H       -0.4834255760    0.3033577146    0.0014471415
3    
Iteration 1 Energy -92.81027737
C        1.4370531400   -0.5095267332    0.0015167543
N        0.2829037291   -0.3132504835    0.0013990662
H       -0.5154129174    0.2619348517    0.0014317207
3    
Iteration 1 Energy -92.81155377
C        1.4364766514   -0.5131035666    0.0015157420
N        0.2854811653   -0.3071305939    0.0014010308
H       -0.5443598679    0.2195126771    0.0014164832
3    
Iteration 1 Energy -92.81260305
C        1.4358778352   -0.5166096755    0.0015147440
N        0.2878616694   -0.3010133079    0.0014029672
H       -0.5703041948    0.1762839599    0.0014014669
3    
Iteration 1 Energy -92.81343826
C        1.4352571932   -0.5200474773    0.0015137616
N        0.2900484153   -0.2949098057    0.0014048698
H       -0.5932959858    0.1324328636    0.0013867342
3    
Iteration 1 Energy -92.81407184
C        1.4346133502   -0.5234188326    0.0015127930
N        0.2920461094   -0.2888306804    0.0014067385
H       -0.6133842523    0.0881287634    0.0013723073
3    
Iteration 1 Energy -92.81451538
C        1.4339453174   -0.5267255524    0.0015118355
N        0.2938615993   -0.2827868662    0.0014085756
H       -0.6306523679    0.0435451765    0.0013581890
3    
Iteration 1 Energy -92.81477951
C        1.4332528696   -0.5299687844    0.0015108944
N        0.2954929451   -0.2767858150    0.0014103681
H       -0.6450706929   -0.0012006675    0.0013444944
3    
Iteration 1 Energy -92.81487272
C        1.4325207336   -0.5331477260    0.0015099633
N        0.2970332585   -0.2708672160    0.0014121273
H       -0.6577511196   -0.0455668090    0.0013311413
