3    
Iteration 1 Energy -92.81487272
C        1.4325207336   -0.5331477260    0.0015099633
N        0.2970332585   -0.2708672160    0.0014121273
H       -0.6577511196   -0.0455668090    0.0013311413
3    
Iteration 1 Energy -92.81477951
C        1.4332528696   -0.5299687844    0.0015108944
N        0.2954929451   -0.2767858150    0.0014103681
H       -0.6450706929   -0.0012006675    0.0013444944
3    
Iteration 1 Energy -92.81451538
C        1.4339453174   -0.5267255524    0.0015118355
N        0.2938615993   -0.2827868662    0.0014085756
H       -0.6306523679    0.0435451765    0.0013581890
3    
Iteration 1 Energy -92.81407184
C        1.4346133502   -0.5234188326    0.0015127930
N        0.2920461094   -0.2888306804    0.0014067385
H       -0.6133842523    0.0881287634    0.0013723073
3    
Iteration 1 Energy -92.81343826
C        1.4352571932   -0.5200474773    0.0015137616
N        0.2900484153   -0.2949098057    0.0014048698
H       -0.5932959858    0.1324328636    0.0013867342
3    
Iteration 1 Energy -92.81260305
C        1.4358778352   -0.5166096755    0.0015147440
N        0.2878616694   -0.3010133079    0.0014029672
H       -0.5703041948    0.1762839599    0.0014014669
3    
Iteration 1 Energy -92.81155377
C        1.4364766514   -0.5131035666    0.0015157420
N        0.2854811653   -0.3071305939    0.0014010308
H       -0.5443598679    0.2195126771    0.0014164832
3    
Iteration 1 Energy -92.81027737
C        1.4370531400   -0.5095267332    0.0015167543
N        0.2829037291   -0.3132504835    0.0013990662
H       -0.5154129174    0.2619348517    0.0014317207
3    
Iteration 1 Energy -92.80876047
C        1.4376044707   -0.5058762545    0.0015177820
N        0.2801290695   -0.3193616092    0.0013970753
H       -0.4834255760    0.3033577146    0.0014471415
3    
Iteration 1 Energy -92.80698964
C        1.4381239616   -0.5021485316    0.0015188250
N        0.2771607868   -0.3254522702    0.0013950616
H       -0.4483682490    0.3435757929    0.0014626955
3    
Iteration 1 Energy -92.80495186
C        1.4385995778   -0.4983391783    0.0015198833
N        0.2740079554   -0.3315106536    0.0013930284
H       -0.4102236371    0.3823726679    0.0014783400
3    
Iteration 1 Energy -92.80263495
C        1.4390128646   -0.4944430359    0.0015209549
N        0.2706861882   -0.3375248377    0.0013909820
H       -0.3689887948    0.4195212037    0.0014940076
3    
Iteration 1 Energy -92.80002824
C        1.4393379752   -0.4904542767    0.0015220377
N        0.2672187463   -0.3434828400    0.0013889290
H       -0.3246789839    0.4547854555    0.0015096339
3    
Iteration 1 Energy -92.79712342
C        1.4395414446   -0.4863667204    0.0015231279
N        0.2636371591   -0.3493726208    0.0013868778
H       -0.2773335795    0.4879244742    0.0015251471
3    
Iteration 1 Energy -92.79391577
C        1.4395839771   -0.4821745446    0.0015242223
N        0.2599802140   -0.3551817858    0.0013848356
H       -0.2270233443    0.5186966502    0.0015404850
3    
Iteration 1 Energy -92.79040578
C        1.4394228561   -0.4778731279    0.0015253153
N        0.2562925362   -0.3608973683    0.0013828131
H       -0.1738593999    0.5468667333    0.0015555657
3    
Iteration 1 Energy -92.78660120
C        1.4390161016   -0.4734601291    0.0015264013
N        0.2526217363   -0.3665055976    0.0013808211
H       -0.1180031247    0.5722154684    0.0015703066
3    
Iteration 1 Energy -92.78251956
C        1.4383272822   -0.4689365301    0.0015274745
N        0.2490148634   -0.3719917976    0.0013788706
H       -0.0596742180    0.5945506162    0.0015846239
3    
Iteration 1 Energy -92.77819062
C        1.4373299597   -0.4643074232    0.0015285299
N        0.2455149962   -0.3773408613    0.0013769715
H        0.0008437241    0.6137229257    0.0015984374
3    
Iteration 1 Energy -92.77365819
C        1.4360110176   -0.4595823627    0.0015295636
N        0.2421583236   -0.3825382593    0.0013751318
H        0.0632041140    0.6296443400    0.0016116842
3    
Iteration 1 Energy -92.76898022
C        1.4343721894   -0.4547751746    0.0015305717
N        0.2389722344   -0.3875719709    0.0013733602
H        0.1270056942    0.6423125660    0.0016242916
3    
Iteration 1 Energy -92.76422628
C        1.4324295543   -0.4499032238    0.0015315520
N        0.2359744192   -0.3924352130    0.0013716603
H        0.1918110485    0.6518402565    0.0016362320
3    
Iteration 1 Energy -92.75947189
C        1.4302111286   -0.4449863200    0.0015325041
N        0.2331728892   -0.3971300362    0.0013700323
H        0.2571750186    0.6584919534    0.0016475100
3    
Iteration 1 Energy -92.75479045
C        1.4277533961   -0.4400457207    0.0015334274
N        0.2305663502   -0.4016714578    0.0013684728
H        0.3226808650    0.6627296299    0.0016581780
3    
Iteration 1 Energy -92.75024488
C        1.4250975506   -0.4351040664    0.0015343219
N        0.2281447954   -0.4060914961    0.0013669720
H        0.3879767951    0.6652679882    0.0016683751
3    
Iteration 1 Energy -92.74588175
C        1.4222867492   -0.4301874383    0.0015351872
N        0.2258902668   -0.4104408539    0.0013655138
H        0.4527981112    0.6671223713    0.0016783276
3    
Iteration 1 Energy -92.74173228
C        1.4193660991   -0.4253293590    0.0015360213
N        0.2237778535   -0.4147813023    0.0013640789
H        0.5169534988    0.6695505898    0.0016883290
3    
Iteration 1 Energy -92.73782351
C        1.4163824864   -0.4205715972    0.0015368204
N        0.2217800182   -0.4191619098    0.0013626498
H        0.5802669416    0.6737322009    0.0016986666
3    
Iteration 1 Energy -92.73420069
C        1.4133793692   -0.4159547380    0.0015375799
N        0.2198753499   -0.4235907985    0.0013612218
H        0.6425181414    0.6802636657    0.0017094593
3    
Iteration 1 Energy -92.73094782
C        1.4103854304   -0.4114988190    0.0015382991
N        0.2180578565   -0.4280244193    0.0013598055
H        0.7034485885    0.6887785826    0.0017205718
3    
Iteration 1 Energy -92.72818287
C        1.4074415563   -0.4073559030    0.0015389443
N        0.2163535963   -0.4324868112    0.0013583984
H        0.7622089947    0.7014229129    0.0017324368
3    
Iteration 1 Energy -92.72603130
C        1.4048935068   -0.4028035031    0.0015397535
N        0.2143753131   -0.4364386994    0.0013570837
H        0.8200607561    0.7020940320    0.0017410640
3    
Iteration 1 Energy -92.72459708
C        1.4011256064   -0.4001916361    0.0015398808
N        0.2141366221   -0.4405861947    0.0013559724
H        0.8682743075    0.7286058752    0.0017549888
3    
Iteration 0 Energy -92.72360563
C        1.4007098424   -0.4000191057    0.0015398648
N        0.2141796627   -0.4410039556    0.0013558703
H        0.9780462115    0.7323552964    0.0017565982
3    
Iteration 1 Energy -92.72494826
C        1.3951405455   -0.3925389302    0.0015408894
N        0.2116267568   -0.4484617927    0.0013536607
H        1.0798828444    0.7468590759    0.0017750934
3    
Iteration 1 Energy -92.72687674
C        1.3916536671   -0.3880639526    0.0015414797
N        0.2105029085   -0.4525371939    0.0013524931
H        1.1370480342    0.7501690661    0.0017842854
3    
Iteration 1 Energy -92.72979124
C        1.3880070204   -0.3834244777    0.0015420869
N        0.2092872858   -0.4568663371    0.0013512495
H        1.1973922549    0.7550449851    0.0017943309
3    
Iteration 1 Energy -92.73374883
C        1.3840119592   -0.3782907556    0.0015427646
N        0.2081517508   -0.4613581583    0.0013499777
H        1.2607751318    0.7562922437    0.0018039301
3    
Iteration 1 Energy -92.73873236
C        1.3796903596   -0.3727748593    0.0015434883
N        0.2071089266   -0.4660069881    0.0013486809
H        1.3267605893    0.7551674744    0.0018133260
3    
Iteration 1 Energy -92.74464098
C        1.3750805685   -0.3668542011    0.0015442698
N        0.2061709641   -0.4707743320    0.0013473702
H        1.3947228527    0.7508666106    0.0018222272
3    
Iteration 1 Energy -92.75129288
C        1.3702378325   -0.3605470963    0.0015451122
N        0.2053464534   -0.4756186922    0.0013460573
H        1.4638842565    0.7430312365    0.0018304346
3    
Iteration 1 Energy -92.75844755
C        1.3652364392   -0.3538836951    0.0015460191
N        0.2046346104   -0.4804962269    0.0013447527
H        1.5333705205    0.7314113790    0.0018377567
3    
Iteration 1 Energy -92.76584105
C        1.3601617250   -0.3469037896    0.0015469934
N        0.2040261271   -0.4853653591    0.0013434651
H        1.6022941539    0.7159034310    0.0018440397
3    
Iteration 1 Energy -92.77322304
C        1.3551001107   -0.3396523135    0.0015480360
N        0.2035061338   -0.4901903655    0.0013422016
H        1.6698320345    0.6965463891    0.0018491751
3    
Iteration 1 Energy -92.78038430
C        1.3501295456   -0.3321751728    0.0015491479
N        0.2030585445   -0.4949431881    0.0013409662
H        1.7352788832    0.6734973564    0.0018530927
3    
Iteration 1 Energy -92.78716886
C        1.3453126599   -0.3245165803    0.0015503275
N        0.2026703323   -0.4996033520    0.0013397621
H        1.7980694484    0.6469986325    0.0018557692
3    
Iteration 1 Energy -92.79347284
C        1.3406937630   -0.3167180704    0.0015515702
N        0.2023343280   -0.5041566211    0.0013385921
H        1.8577753806    0.6173472990    0.0018572201
3    
Iteration 1 Energy -92.79923551
C        1.3362992334   -0.3088185380    0.0015528695
N        0.2020501340   -0.5085932199    0.0013374589
H        1.9140878891    0.5848709691    0.0018574852
3    
Iteration 1 Energy -92.80442823
C        1.3321402859   -0.3008547217    0.0015542199
N        0.2018231891   -0.5129063093    0.0013363642
H        1.9667977673    0.5499123718    0.0018566061
3    
Iteration 1 Energy -92.80904468
C        1.3282167732   -0.2928614454    0.0015556127
N        0.2016628716   -0.5170909308    0.0013353107
H        2.0157764471    0.5128175432    0.0018546506
3    
Iteration 1 Energy -92.81309335
C        1.3245211589   -0.2848715778    0.0015570378
N        0.2015801658   -0.5211434636    0.0013343010
H        2.0609610941    0.4739278250    0.0018517002
3    
Iteration 1 Energy -92.81659236
C        1.3210418210   -0.2769157293    0.0015584859
N        0.2015857206   -0.5250613888    0.0013333375
H        2.1023422096    0.4335729519    0.0018478328
3    
Iteration 1 Energy -92.81956606
C        1.3177654377   -0.2690219368    0.0015599468
N        0.2016884768   -0.5288432204    0.0013324225
H        2.1399542910    0.3920663499    0.0018431408
3    
Iteration 1 Energy -92.82204275
C        1.3146787152   -0.2612152391    0.0015614157
N        0.2018948564   -0.5324885204    0.0013315557
H        2.1738665021    0.3497002835    0.0018376843
3    
Iteration 1 Energy -92.82405313
C        1.3117691733   -0.2535175193    0.0015628846
N        0.2022086606   -0.5359978277    0.0013307376
H        2.2041747276    0.3067429936    0.0018315484
3    
Iteration 1 Energy -92.82562908
C        1.3090257529   -0.2459474790    0.0015643427
N        0.2026310395   -0.5393726069    0.0013299701
H        2.2309947626    0.2634376699    0.0018248393
3    
Iteration 1 Energy -92.82680262
C        1.3064387788   -0.2385208907    0.0015657932
N        0.2031609777   -0.5426150526    0.0013292491
H        2.2544560034    0.2200027488    0.0018175763
3    
Iteration 1 Energy -92.82760512
C        1.3039999573   -0.2312509983    0.0015672235
N        0.2037953412   -0.5457280141    0.0013285765
H        2.2747008213    0.1766356324    0.0018098796
3    
Iteration 1 Energy -92.82806671
C        1.3017017526   -0.2241489146    0.0015686395
N        0.2045298458   -0.5487146667    0.0013279471
H        2.2918785492    0.1335128599    0.0018017535
3    
Iteration 1 Energy -92.82821583
C        1.2995382104   -0.2172237557    0.0015700311
N        0.2053566044   -0.5515792461    0.0013273614
H        2.3061697273    0.0908019142    0.0017933092
