3    
Image 0/11, Energy =   -92.8148741520 (+8.372 kcal/mol)
C       -0.7423976108   -0.8166733369   -0.0000000000
N        0.0415634250    0.0457411997    0.0000000000
H        0.7008341911    0.7709321372    0.0000000000
3    
Image 1/11, Energy =   -92.8032003851 (+15.697 kcal/mol)
C       -0.5378530882   -0.8998758284    0.0000000000
N       -0.1529541190    0.2044919997    0.0000000000
H        0.6908072092    0.6953838301    0.0000000000
3    
Image 2/11, Energy =   -92.7740086568 (+34.016 kcal/mol)
C       -0.3509722509   -0.8675062126    0.0000000000
N       -0.3202279623    0.3208071235    0.0000000000
H        0.6712002141    0.5466990906    0.0000000000
3    
Image 3/11, Energy =   -92.7411792797 (+54.616 kcal/mol)
C       -0.1911236316   -0.7684515229   -0.0000000000
N       -0.4781201457    0.3890737933    0.0000000000
H        0.6692437777    0.3793777313    0.0000000000
3    
Image 4/11, Energy =   -92.7236051797 (+65.644 kcal/mol)
C       -0.0846033423   -0.6430756691   -0.0000000000
N       -0.6535940886    0.3989811349    0.0000000000
H        0.7381974312    0.2440945360    0.0000000000
3    
Image 5/11, Energy =   -92.7473265156 (+50.759 kcal/mol)
C       -0.0293467463   -0.4923858376    0.0000000000
N       -0.8321875648    0.3510235732    0.0000000000
H        0.8615343114    0.1413622662    0.0000000000
3    
Image 6/11, Energy =   -92.7928232026 (+22.209 kcal/mol)
C        0.0080678443   -0.3186674977    0.0000000000
N       -0.9849771610    0.2516413393    0.0000000000
H        0.9769093169    0.0670261601    0.0000000000
3    
Image 7/11, Energy =   -92.8224202612 (+3.637 kcal/mol)
C        0.0382623490   -0.1281188293   -0.0000000000
N       -1.0909329359    0.0263621267    0.0000000000
H        1.0526705869    0.1017567041    0.0000000000
3    
Image 8/11, Energy =   -92.8277319087 (+0.304 kcal/mol)
C        0.0407165693   -0.0247597608   -0.0000000000
N       -1.0667541065   -0.2987197414    0.0000000000
H        1.0260375368    0.3234795033    0.0000000000
3    
Image 9/11, Energy =   -92.8281362523 (+0.050 kcal/mol)
C        0.0314944074    0.0100033174   -0.0000000000
N       -0.9422527998   -0.5858837429    0.0000000000
H        0.9107583920    0.5758804257    0.0000000000
3    
Image 10/11, Energy =   -92.8282158336 (+0.000 kcal/mol)
C        0.0205086862    0.0225589462    0.0000000000
N       -0.7491295810   -0.8240317894   -0.0000000000
H        0.7286208949    0.8014728432    0.0000000000
