3    
Image 0/11, Energy =   -92.8141878334 (+8.384 kcal/mol)
C       -0.7519862184   -0.8272338399    0.0000000000
N        0.0394753354    0.0434721365    0.0000000000
H        0.7125108830    0.7837617034    0.0000000000
3    
Image 1/11, Energy =   -92.8039492119 (+14.808 kcal/mol)
C       -0.6232522862   -0.8497153169    0.0000000000
N       -0.1302354807    0.2138623973    0.0000000000
H        0.7534877669    0.6358529196    0.0000000000
3    
Image 2/11, Energy =   -92.7723696885 (+34.625 kcal/mol)
C       -0.4482527765   -0.8147692069   -0.0000000000
N       -0.2836053926    0.3650226870    0.0000000000
H        0.7318581691    0.4497465199    0.0000000000
3    
Image 3/11, Energy =   -92.7443790008 (+52.189 kcal/mol)
C       -0.2848975541   -0.7541229524   -0.0000000000
N       -0.4149062338    0.4328323332    0.0000000000
H        0.6998037879    0.3212906191    0.0000000000
3    
Image 4/11, Energy =   -92.7236064005 (+65.224 kcal/mol)
C       -0.1092497167   -0.6380872966    0.0000000000
N       -0.6387949884    0.4243207143    0.0000000000
H        0.7480447050    0.2137665823    0.0000000000
3    
Image 5/11, Energy =   -92.7418537858 (+53.774 kcal/mol)
C       -0.0056619924   -0.5069418580    0.0000000000
N       -0.8300775786    0.2967414202   -0.0000000000
H        0.8357395710    0.2102004379   -0.0000000000
3    
Image 6/11, Energy =   -92.7747549756 (+33.128 kcal/mol)
C        0.0559624391   -0.3897947564   -0.0000000000
N       -0.9641546717    0.1496339501    0.0000000000
H        0.9081922326    0.2401608062   -0.0000000000
3    
Image 7/11, Energy =   -92.8109855902 (+10.393 kcal/mol)
C        0.0994120143   -0.1924113355    0.0000000000
N       -1.0217452416   -0.2806443059    0.0000000000
H        0.9223332273    0.4730556414   -0.0000000000
3    
Image 8/11, Energy =   -92.8230974077 (+2.793 kcal/mol)
C        0.0946594657   -0.0871627056    0.0000000000
N       -0.9742152165   -0.5151316596   -0.0000000000
H        0.8795557508    0.6022943652    0.0000000000
3    
Image 9/11, Energy =   -92.8255585605 (+1.248 kcal/mol)
C        0.0422643237   -0.0237168722   -0.0000000000
N       -0.8459407509   -0.7054731406    0.0000000000
H        0.8036764272    0.7291900129   -0.0000000000
3    
Image 10/11, Energy =   -92.8275480253 (+0.000 kcal/mol)
C        0.0194260556    0.0213642891    0.0000000000
N       -0.7589320377   -0.8347584640    0.0000000000
H        0.7395059821    0.8133941749    0.0000000000
