3    
Image 0/11, Energy =   -92.8148741520 (+8.372 kcal/mol)
C       -0.7423976055   -0.8166733316   -0.0000000000
N        0.0415634250    0.0457411997    0.0000000000
H        0.7008341858    0.7709321319    0.0000000000
3    
Image 1/11, Energy =   -92.8035833530 (+15.457 kcal/mol)
C       -0.5474031792   -0.8973212403    0.0000000000
N       -0.1495425846    0.2040202577    0.0000000000
H        0.6969457654    0.6933009797    0.0000000000
3    
Image 2/11, Energy =   -92.7743911707 (+33.775 kcal/mol)
C       -0.3714493764   -0.8610876887    0.0000000000
N       -0.3112650831    0.3272879720    0.0000000000
H        0.6827144599    0.5337997129    0.0000000000
3    
Image 3/11, Energy =   -92.7422179178 (+53.965 kcal/mol)
C       -0.2158086727   -0.7662436311    0.0000000000
N       -0.4600977176    0.4019362270    0.0000000000
H        0.6759063904    0.3643074000    0.0000000000
3    
Image 4/11, Energy =   -92.7236067975 (+65.643 kcal/mol)
C       -0.1038564901   -0.6407811219    0.0000000000
N       -0.6401078125    0.4186157831    0.0000000000
H        0.7439643027    0.2221653347    0.0000000000
3    
Image 5/11, Energy =   -92.7490755803 (+49.661 kcal/mol)
C       -0.0456229940   -0.4844871629    0.0000000000
N       -0.8251873179    0.3801223351    0.0000000000
H        0.8708103119    0.1043648237    0.0000000000
3    
Image 6/11, Energy =   -92.7963522108 (+19.995 kcal/mol)
C       -0.0067219200   -0.3031097255    0.0000000000
N       -0.9811106918    0.2984706629    0.0000000000
H        0.9878326118    0.0046390585    0.0000000000
3    
Image 7/11, Energy =   -92.8246199719 (+2.256 kcal/mol)
C        0.0281327639   -0.1038167901    0.0000000000
N       -1.0937883499    0.0996728806    0.0000000000
H        1.0656555861    0.0041439058    0.0000000000
3    
Image 8/11, Energy =   -92.8281189301 (+0.061 kcal/mol)
C        0.0337961216   -0.0067016611    0.0000000000
N       -1.0811259897   -0.2536814603    0.0000000000
H        1.0473298681    0.2603831189    0.0000000000
3    
Image 9/11, Energy =   -92.8281912239 (+0.015 kcal/mol)
C        0.0279676262    0.0144491770    0.0000000000
N       -0.9564478577   -0.5653570152    0.0000000000
H        0.9284802315    0.5509078370    0.0000000000
3    
Image 10/11, Energy =   -92.8282158335 (+0.000 kcal/mol)
C        0.0205086862    0.0225589462    0.0000000000
N       -0.7491295810   -0.8240317894   -0.0000000000
H        0.7286208949    0.8014728432    0.0000000000
