3    
Image 0/11, Energy =   -92.8148741520 (+8.372 kcal/mol)
C       -0.7423976108   -0.8166733369   -0.0000000000
N        0.0415634250    0.0457411997    0.0000000000
H        0.7008341911    0.7709321372    0.0000000000
3    
Image 1/11, Energy =   -92.8032003851 (+15.697 kcal/mol)
C       -0.5378530882   -0.8998758284    0.0000000000
N       -0.1529541190    0.2044919997    0.0000000000
H        0.6908072092    0.6953838301    0.0000000000
3    
Image 2/11, Energy =   -92.7740086568 (+34.016 kcal/mol)
C       -0.3509722509   -0.8675062126    0.0000000000
N       -0.3202279623    0.3208071235    0.0000000000
H        0.6712002141    0.5466990906    0.0000000000
3    
Image 3/11, Energy =   -92.7411792797 (+54.616 kcal/mol)
C       -0.1911236316   -0.7684515229   -0.0000000000
N       -0.4781201457    0.3890737933    0.0000000000
H        0.6692437777    0.3793777313    0.0000000000
3    
Image 4/11, Energy =   -92.7236051797 (+65.644 kcal/mol)
C       -0.0846033423   -0.6430756691   -0.0000000000
N       -0.6535940886    0.3989811349    0.0000000000
H        0.7381974312    0.2440945360    0.0000000000
3    
Image 5/11, Energy =   -92.7462187792 (+51.454 kcal/mol)
C       -0.0309831124   -0.4966712344    0.0000000000
N       -0.8274590763    0.3538844574    0.0000000000
H        0.8584421891    0.1427867787    0.0000000000
3    
Image 6/11, Energy =   -92.7911433886 (+23.263 kcal/mol)
C        0.0061407358   -0.3261110603    0.0000000000
N       -0.9790128904    0.2590403657    0.0000000000
H        0.9728721549    0.0670706964    0.0000000000
3    
Image 7/11, Energy =   -92.8217730077 (+4.043 kcal/mol)
C        0.0370357676   -0.1354426450   -0.0000000000
N       -1.0884250381    0.0425670392    0.0000000000
H        1.0513892704    0.0928756074    0.0000000000
3    
Image 8/11, Energy =   -92.8276881919 (+0.331 kcal/mol)
C        0.0407761968   -0.0265565386   -0.0000000000
N       -1.0697025753   -0.2863040058    0.0000000000
H        1.0289263781    0.3128605455    0.0000000000
3    
Image 9/11, Energy =   -92.8281278743 (+0.055 kcal/mol)
C        0.0317158854    0.0095711521   -0.0000000000
N       -0.9455045828   -0.5801167135    0.0000000000
H        0.9137886969    0.5705455615    0.0000000000
3    
Image 10/11, Energy =   -92.8282158336 (+0.000 kcal/mol)
C        0.0205086862    0.0225589462    0.0000000000
N       -0.7491295810   -0.8240317894   -0.0000000000
H        0.7286208949    0.8014728432    0.0000000000
