3    
Image 0/11, Energy =   -92.8141878334 (+8.797 kcal/mol)
C       -0.7519862184   -0.8272338399    0.0000000000
N        0.0394753354    0.0434721365    0.0000000000
H        0.7125108830    0.7837617034    0.0000000000
3    
Image 1/11, Energy =   -92.8052118417 (+14.430 kcal/mol)
C       -0.5830643370   -0.8844688727   -0.0000000000
N       -0.1322458478    0.1971903656    0.0000000000
H        0.7153101848    0.6872785071    0.0000000000
3    
Image 2/11, Energy =   -92.7750553103 (+33.353 kcal/mol)
C       -0.3759766576   -0.8625345426   -0.0000000000
N       -0.3076835459    0.3264113487   -0.0000000000
H        0.6836602034    0.5361231939    0.0000000000
3    
Image 3/11, Energy =   -92.7467460282 (+51.118 kcal/mol)
C       -0.2412666116   -0.7815216526   -0.0000000000
N       -0.4329696385    0.3975042902   -0.0000000000
H        0.6742362502    0.3840173624   -0.0000000000
3    
Image 4/11, Energy =   -92.7236064005 (+65.638 kcal/mol)
C       -0.1092497167   -0.6380872966    0.0000000000
N       -0.6387949884    0.4243207143    0.0000000000
H        0.7480447050    0.2137665823    0.0000000000
3    
Image 5/11, Energy =   -92.7590620314 (+43.389 kcal/mol)
C       -0.0458408942   -0.4475087619   -0.0000000000
N       -0.8529003497    0.3853698401    0.0000000000
H        0.8987412439    0.0621389219   -0.0000000000
3    
Image 6/11, Energy =   -92.8069546343 (+13.336 kcal/mol)
C       -0.0117363007   -0.2495761499    0.0000000000
N       -1.0009414819    0.3233899348    0.0000000000
H        1.0126777826   -0.0738137849   -0.0000000000
3    
Image 7/11, Energy =   -92.8271422410 (+0.668 kcal/mol)
C        0.0295050344   -0.0577613778    0.0000000000
N       -1.1099897925    0.0334989091    0.0000000000
H        1.0804847582    0.0242624688   -0.0000000000
3    
Image 8/11, Energy =   -92.8281885082 (+0.012 kcal/mol)
C        0.0262676371    0.0172765819    0.0000000000
N       -1.0647015140   -0.3250385627   -0.0000000000
H        1.0384338769    0.3077619808    0.0000000000
3    
Image 9/11, Energy =   -92.8282073947 (+0.000 kcal/mol)
C        0.0244292587    0.0189752149   -0.0000000000
N       -0.9790036623   -0.5311129344   -0.0000000000
H        0.9545744036    0.5121377194    0.0000000000
3    
Image 10/11, Energy =   -92.8275480253 (+0.414 kcal/mol)
C        0.0194260556    0.0213642891    0.0000000000
N       -0.7589320377   -0.8347584640    0.0000000000
H        0.7395059821    0.8133941749    0.0000000000
