3    
Image 0/11, Energy =   -92.8141878334 (+8.776 kcal/mol)
C       -0.7519862184   -0.8272338399    0.0000000000
N        0.0394753354    0.0434721365    0.0000000000
H        0.7125108830    0.7837617034    0.0000000000
3    
Image 1/11, Energy =   -92.8042677553 (+15.001 kcal/mol)
C       -0.6073738000   -0.8633358588   -0.0000000000
N       -0.1325968078    0.2090022808    0.0000000000
H        0.7399706078    0.6543335780    0.0000000000
3    
Image 2/11, Energy =   -92.7746061510 (+33.614 kcal/mol)
C       -0.3952322942   -0.8518934324   -0.0000000000
N       -0.3016633871    0.3352564965    0.0000000000
H        0.6968956813    0.5166369359    0.0000000000
3    
Image 3/11, Energy =   -92.7467336428 (+51.104 kcal/mol)
C       -0.2398052313   -0.7822671297    0.0000000000
N       -0.4338651886    0.3971481586   -0.0000000000
H        0.6736704198    0.3851189711   -0.0000000000
3    
Image 4/11, Energy =   -92.7236064005 (+65.617 kcal/mol)
C       -0.1092497167   -0.6380872966    0.0000000000
N       -0.6387949884    0.4243207143    0.0000000000
H        0.7480447050    0.2137665823    0.0000000000
3    
Image 5/11, Energy =   -92.7582467411 (+43.880 kcal/mol)
C       -0.0526218167   -0.4492563315   -0.0000000000
N       -0.8442849676    0.3981656531    0.0000000000
H        0.8969067843    0.0510906784    0.0000000000
3    
Image 6/11, Energy =   -92.8055067443 (+14.224 kcal/mol)
C       -0.0105949734   -0.2570664367    0.0000000000
N       -1.0002374815    0.3105336140   -0.0000000000
H        1.0108324549   -0.0534671773   -0.0000000000
3    
Image 7/11, Energy =   -92.8280896095 (+0.053 kcal/mol)
C        0.0236643730    0.0251492151    0.0000000000
N       -1.0697940662   -0.3189325485    0.0000000000
H        1.0461296932    0.2937833334    0.0000000000
3    
Image 8/11, Energy =   -92.8281111014 (+0.039 kcal/mol)
C        0.0185270505    0.0304213269    0.0000000000
N       -0.9753074664   -0.5380936073   -0.0000000000
H        0.9567804160    0.5076722804    0.0000000000
3    
Image 9/11, Energy =   -92.8281735074 (+0.000 kcal/mol)
C        0.0156613655    0.0287223224   -0.0000000000
N       -0.8375050841   -0.7334810192    0.0000000000
H        0.8218437186    0.7047586968   -0.0000000000
3    
Image 10/11, Energy =   -92.8275480253 (+0.392 kcal/mol)
C        0.0194260556    0.0213642891    0.0000000000
N       -0.7589320377   -0.8347584640    0.0000000000
H        0.7395059821    0.8133941749    0.0000000000
