3    
Image 0/11, Energy =   -92.8148741520 (+8.372 kcal/mol)
C       -0.7423976055   -0.8166733316   -0.0000000000
N        0.0415634250    0.0457411997    0.0000000000
H        0.7008341858    0.7709321319    0.0000000000
3    
Image 1/11, Energy =   -92.8035833530 (+15.457 kcal/mol)
C       -0.5474031792   -0.8973212403    0.0000000000
N       -0.1495425846    0.2040202577    0.0000000000
H        0.6969457654    0.6933009797    0.0000000000
3    
Image 2/11, Energy =   -92.7743911707 (+33.775 kcal/mol)
C       -0.3714493764   -0.8610876887    0.0000000000
N       -0.3112650831    0.3272879720    0.0000000000
H        0.6827144599    0.5337997129    0.0000000000
3    
Image 3/11, Energy =   -92.7422179178 (+53.965 kcal/mol)
C       -0.2158086727   -0.7662436311    0.0000000000
N       -0.4600977176    0.4019362270    0.0000000000
H        0.6759063904    0.3643074000    0.0000000000
3    
Image 4/11, Energy =   -92.7236067975 (+65.643 kcal/mol)
C       -0.1038564901   -0.6407811219    0.0000000000
N       -0.6401078125    0.4186157831    0.0000000000
H        0.7439643027    0.2221653347    0.0000000000
3    
Image 5/11, Energy =   -92.7483955735 (+50.088 kcal/mol)
C       -0.0467344165   -0.4870383449    0.0000000000
N       -0.8222766555    0.3818523440    0.0000000000
H        0.8690110721    0.1051859969    0.0000000000
3    
Image 6/11, Energy =   -92.7938745305 (+21.549 kcal/mol)
C       -0.0099726137   -0.3144175230    0.0000000000
N       -0.9718888752    0.3086438593    0.0000000000
H        0.9818614890    0.0057736597    0.0000000000
3    
Image 7/11, Energy =   -92.8233966538 (+3.024 kcal/mol)
C        0.0255090293   -0.1206088788    0.0000000000
N       -1.0869973031    0.1309116429    0.0000000000
H        1.0614882739   -0.0103027677    0.0000000000
3    
Image 8/11, Energy =   -92.8280852394 (+0.082 kcal/mol)
C        0.0345075929   -0.0102045297    0.0000000000
N       -1.0848782908   -0.2365166945    0.0000000000
H        1.0503706980    0.2467212217    0.0000000000
3    
Image 9/11, Energy =   -92.8281903582 (+0.016 kcal/mol)
C        0.0282140784    0.0140958078    0.0000000000
N       -0.9600181321   -0.5592363858    0.0000000000
H        0.9318040537    0.5451405767    0.0000000000
3    
Image 10/11, Energy =   -92.8282158335 (+0.000 kcal/mol)
C        0.0205086862    0.0225589462    0.0000000000
N       -0.7491295810   -0.8240317894   -0.0000000000
H        0.7286208949    0.8014728432    0.0000000000
