3    
Image 0/11, Energy =   -92.8148741520 (+8.372 kcal/mol)
C       -0.7423976055   -0.8166733316   -0.0000000000
N        0.0415634250    0.0457411997    0.0000000000
H        0.7008341858    0.7709321319    0.0000000000
3    
Image 1/11, Energy =   -92.8035833530 (+15.457 kcal/mol)
C       -0.5474031792   -0.8973212403    0.0000000000
N       -0.1495425846    0.2040202577    0.0000000000
H        0.6969457654    0.6933009797    0.0000000000
3    
Image 2/11, Energy =   -92.7743911707 (+33.775 kcal/mol)
C       -0.3714493764   -0.8610876887    0.0000000000
N       -0.3112650831    0.3272879720    0.0000000000
H        0.6827144599    0.5337997129    0.0000000000
3    
Image 3/11, Energy =   -92.7422179178 (+53.965 kcal/mol)
C       -0.2158086727   -0.7662436311    0.0000000000
N       -0.4600977176    0.4019362270    0.0000000000
H        0.6759063904    0.3643074000    0.0000000000
3    
Image 4/11, Energy =   -92.7236067975 (+65.643 kcal/mol)
C       -0.1038564901   -0.6407811219    0.0000000000
N       -0.6401078125    0.4186157831    0.0000000000
H        0.7439643027    0.2221653347    0.0000000000
3    
Image 5/11, Energy =   -92.7489403726 (+49.746 kcal/mol)
C       -0.0458550773   -0.4850021637    0.0000000000
N       -0.8246025993    0.3805124115    0.0000000000
H        0.8704576767    0.1044897481    0.0000000000
3    
Image 6/11, Energy =   -92.7958401771 (+20.316 kcal/mol)
C       -0.0074932861   -0.3054966323    0.0000000000
N       -0.9791216101    0.3009339332    0.0000000000
H        0.9866148963    0.0045626951    0.0000000000
3    
Image 7/11, Energy =   -92.8242961312 (+2.460 kcal/mol)
C        0.0276156146   -0.1085819447    0.0000000000
N       -1.0922005163    0.1077273554    0.0000000000
H        1.0645849018    0.0008545857    0.0000000000
3    
Image 8/11, Energy =   -92.8281172798 (+0.062 kcal/mol)
C        0.0339117387   -0.0070495581    0.0000000000
N       -1.0820786898   -0.2498201357    0.0000000000
H        1.0481669511    0.2568696913    0.0000000000
3    
Image 9/11, Energy =   -92.8281918589 (+0.015 kcal/mol)
C        0.0279867485    0.0144375770    0.0000000000
N       -0.9569685793   -0.5645631862    0.0000000000
H        0.9289818309    0.5501256079    0.0000000000
3    
Image 10/11, Energy =   -92.8282158335 (+0.000 kcal/mol)
C        0.0205086862    0.0225589462    0.0000000000
N       -0.7491295810   -0.8240317894   -0.0000000000
H        0.7286208949    0.8014728432    0.0000000000
