3    
Image 0/11, Energy =   -92.8148741520 (+8.372 kcal/mol)
C       -0.7423976108   -0.8166733369   -0.0000000000
N        0.0415634250    0.0457411997    0.0000000000
H        0.7008341911    0.7709321372    0.0000000000
3    
Image 1/11, Energy =   -92.8032003851 (+15.697 kcal/mol)
C       -0.5378530882   -0.8998758284    0.0000000000
N       -0.1529541190    0.2044919997    0.0000000000
H        0.6908072092    0.6953838301    0.0000000000
3    
Image 2/11, Energy =   -92.7740086568 (+34.016 kcal/mol)
C       -0.3509722509   -0.8675062126    0.0000000000
N       -0.3202279623    0.3208071235    0.0000000000
H        0.6712002141    0.5466990906    0.0000000000
3    
Image 3/11, Energy =   -92.7411792797 (+54.616 kcal/mol)
C       -0.1911236316   -0.7684515229   -0.0000000000
N       -0.4781201457    0.3890737933    0.0000000000
H        0.6692437777    0.3793777313    0.0000000000
3    
Image 4/11, Energy =   -92.7236051797 (+65.644 kcal/mol)
C       -0.0846033423   -0.6430756691   -0.0000000000
N       -0.6535940886    0.3989811349    0.0000000000
H        0.7381974312    0.2440945360    0.0000000000
3    
Image 5/11, Energy =   -92.7490983724 (+49.647 kcal/mol)
C       -0.0266944219   -0.4856375054   -0.0000000000
N       -0.8395950244    0.3465321668    0.0000000000
H        0.8662894467    0.1391053402    0.0000000000
3    
Image 6/11, Energy =   -92.7957758058 (+20.356 kcal/mol)
C        0.0114606520   -0.3050145946    0.0000000000
N       -0.9953529673    0.2379621800    0.0000000000
H        0.9838923155    0.0670524163    0.0000000000
3    
Image 7/11, Energy =   -92.8234335162 (+3.001 kcal/mol)
C        0.0402001209   -0.1155348089   -0.0000000000
N       -1.0943211613   -0.0060898732    0.0000000000
H        1.0541210407    0.1216246838    0.0000000000
3    
Image 8/11, Energy =   -92.8278255271 (+0.245 kcal/mol)
C        0.0400632491   -0.0206024179    0.0000000000
N       -1.0597291665   -0.3254708286    0.0000000000
H        1.0196659174    0.3460732477    0.0000000000
3    
Image 9/11, Energy =   -92.8281535673 (+0.039 kcal/mol)
C        0.0308453029    0.0109131270    0.0000000000
N       -0.9348679189   -0.5985870652    0.0000000000
H        0.9040226160    0.5876739386   -0.0000000000
3    
Image 10/11, Energy =   -92.8282158336 (+0.000 kcal/mol)
C        0.0205086862    0.0225589462    0.0000000000
N       -0.7491295810   -0.8240317894   -0.0000000000
H        0.7286208949    0.8014728432    0.0000000000
