3    
Image 0/11, Energy =   -92.8141878334 (+8.578 kcal/mol)
C       -0.7519862184   -0.8272338399    0.0000000000
N        0.0394753354    0.0434721365    0.0000000000
H        0.7125108830    0.7837617034    0.0000000000
3    
Image 1/11, Energy =   -92.8039510751 (+15.001 kcal/mol)
C       -0.6227214937   -0.8501269204   -0.0000000000
N       -0.1304334375    0.2137442704    0.0000000000
H        0.7531549313    0.6363826500    0.0000000000
3    
Image 2/11, Energy =   -92.7725227410 (+34.723 kcal/mol)
C       -0.4432826055   -0.8183939429   -0.0000000000
N       -0.2856108151    0.3626918698    0.0000000000
H        0.7288934206    0.4557020731    0.0000000000
3    
Image 3/11, Energy =   -92.7448852084 (+52.066 kcal/mol)
C       -0.2778433623   -0.7594699931   -0.0000000000
N       -0.4180589544    0.4261457378    0.0000000000
H        0.6959023167    0.3333242553    0.0000000000
3    
Image 4/11, Energy =   -92.7236064005 (+65.418 kcal/mol)
C       -0.1092497167   -0.6380872966    0.0000000000
N       -0.6387949884    0.4243207143    0.0000000000
H        0.7480447050    0.2137665823    0.0000000000
3    
Image 5/11, Energy =   -92.7455712471 (+51.635 kcal/mol)
C       -0.0110791107   -0.5002323321    0.0000000000
N       -0.8393289934    0.3189644970   -0.0000000000
H        0.8504081041    0.1812678351   -0.0000000000
3    
Image 6/11, Energy =   -92.7804959941 (+29.720 kcal/mol)
C        0.0424190721   -0.3691770152   -0.0000000000
N       -0.9742291547    0.1704037236   -0.0000000000
H        0.9318100825    0.1987732916   -0.0000000000
3    
Image 7/11, Energy =   -92.8174554435 (+6.527 kcal/mol)
C        0.0947777469   -0.1557793277    0.0000000000
N       -1.0432718008   -0.2871880725    0.0000000000
H        0.9484940539    0.4429674001   -0.0000000000
3    
Image 8/11, Energy =   -92.8250305709 (+1.774 kcal/mol)
C        0.0771114417   -0.0694938171    0.0000000000
N       -0.9751807361   -0.5176620490   -0.0000000000
H        0.8980692944    0.5871558661    0.0000000000
3    
Image 9/11, Energy =   -92.8278570747 (+0.000 kcal/mol)
C        0.0440547339   -0.0056193713   -0.0000000000
N       -0.8513069134   -0.7182570311    0.0000000000
H        0.8072521795    0.7238764023   -0.0000000000
3    
Image 10/11, Energy =   -92.8275480253 (+0.194 kcal/mol)
C        0.0194260556    0.0213642891    0.0000000000
N       -0.7589320377   -0.8347584640    0.0000000000
H        0.7395059821    0.8133941749    0.0000000000
