3    
Image 0/11, Energy =   -92.8148741520 (+8.372 kcal/mol)
C       -0.7423976108   -0.8166733369   -0.0000000000
N        0.0415634250    0.0457411997    0.0000000000
H        0.7008341911    0.7709321372    0.0000000000
3    
Image 1/11, Energy =   -92.8032003851 (+15.697 kcal/mol)
C       -0.5378530882   -0.8998758284    0.0000000000
N       -0.1529541190    0.2044919997    0.0000000000
H        0.6908072092    0.6953838301    0.0000000000
3    
Image 2/11, Energy =   -92.7740086568 (+34.016 kcal/mol)
C       -0.3509722509   -0.8675062126    0.0000000000
N       -0.3202279623    0.3208071235    0.0000000000
H        0.6712002141    0.5466990906    0.0000000000
3    
Image 3/11, Energy =   -92.7411792797 (+54.616 kcal/mol)
C       -0.1911236316   -0.7684515229   -0.0000000000
N       -0.4781201457    0.3890737933    0.0000000000
H        0.6692437777    0.3793777313    0.0000000000
3    
Image 4/11, Energy =   -92.7236051797 (+65.644 kcal/mol)
C       -0.0846033423   -0.6430756691   -0.0000000000
N       -0.6535940886    0.3989811349    0.0000000000
H        0.7381974312    0.2440945360    0.0000000000
3    
Image 5/11, Energy =   -92.7448167332 (+52.334 kcal/mol)
C       -0.0332112966   -0.5021217400    0.0000000000
N       -0.8212704261    0.3575585531    0.0000000000
H        0.8544817230    0.1445631887    0.0000000000
3    
Image 6/11, Energy =   -92.7881145051 (+25.164 kcal/mol)
C        0.0025346516   -0.3392011385    0.0000000000
N       -0.9682751350    0.2718630660    0.0000000000
H        0.9657404837    0.0673380743    0.0000000000
3    
Image 7/11, Energy =   -92.8196148539 (+5.397 kcal/mol)
C        0.0338141479   -0.1574437838    0.0000000000
N       -1.0800848283    0.0827318579    0.0000000000
H        1.0462706804    0.0747119275    0.0000000000
3    
Image 8/11, Energy =   -92.8275399352 (+0.424 kcal/mol)
C        0.0414917143   -0.0324109149   -0.0000000000
N       -1.0765898589   -0.2554888208    0.0000000000
H        1.0350981442    0.2878997365    0.0000000000
3    
Image 9/11, Energy =   -92.8281089278 (+0.067 kcal/mol)
C        0.0324337340    0.0083792935   -0.0000000000
N       -0.9534279510   -0.5661178533    0.0000000000
H        0.9209942164    0.5577385599    0.0000000000
3    
Image 10/11, Energy =   -92.8282158336 (+0.000 kcal/mol)
C        0.0205086862    0.0225589462    0.0000000000
N       -0.7491295810   -0.8240317894   -0.0000000000
H        0.7286208949    0.8014728432    0.0000000000
