3    
Image 0/11, Energy =   -92.8141878334 (+8.709 kcal/mol)
C       -0.7519862184   -0.8272338399    0.0000000000
N        0.0394753354    0.0434721365    0.0000000000
H        0.7125108830    0.7837617034    0.0000000000
3    
Image 1/11, Energy =   -92.8047926965 (+14.605 kcal/mol)
C       -0.5943941031   -0.8734405054   -0.0000000000
N       -0.1330824682    0.2009530792   -0.0000000000
H        0.7274765712    0.6724874262    0.0000000000
3    
Image 2/11, Energy =   -92.7750082190 (+33.295 kcal/mol)
C       -0.3809447931   -0.8602067013   -0.0000000000
N       -0.3059622252    0.3284453221    0.0000000000
H        0.6869070183    0.5317613792    0.0000000000
3    
Image 3/11, Energy =   -92.7467633888 (+51.019 kcal/mol)
C       -0.2396630067   -0.7820408627   -0.0000000000
N       -0.4336921844    0.3965014853   -0.0000000000
H        0.6733551911    0.3855393775   -0.0000000000
3    
Image 4/11, Energy =   -92.7236064005 (+65.550 kcal/mol)
C       -0.1092497167   -0.6380872966    0.0000000000
N       -0.6387949884    0.4243207143    0.0000000000
H        0.7480447050    0.2137665823    0.0000000000
3    
Image 5/11, Energy =   -92.7589874651 (+43.348 kcal/mol)
C       -0.0501565726   -0.4468411683    0.0000000000
N       -0.8491777750    0.3913618704    0.0000000000
H        0.8993343476    0.0554792980   -0.0000000000
3    
Image 6/11, Energy =   -92.8043136791 (+14.905 kcal/mol)
C        0.0021317761   -0.2590948184    0.0000000000
N       -1.0105942730    0.3302335458    0.0000000000
H        1.0084624969   -0.0711387274   -0.0000000000
3    
Image 7/11, Energy =   -92.8240606127 (+2.514 kcal/mol)
C        0.0366281318   -0.1072400651    0.0000000000
N       -1.1124584581    0.0411399042    0.0000000000
H        1.0758303264    0.0661001609   -0.0000000000
3    
Image 8/11, Energy =   -92.8280670456 (+0.000 kcal/mol)
C        0.0217889561    0.0278042575    0.0000000000
N       -1.0642320838   -0.3287081626   -0.0000000000
H        1.0424431277    0.3009039051    0.0000000000
3    
Image 9/11, Energy =   -92.8276869288 (+0.239 kcal/mol)
C        0.0267372359    0.0288909845   -0.0000000000
N       -0.9817510680   -0.5380430015   -0.0000000000
H        0.9550138321    0.5091520169    0.0000000000
3    
Image 10/11, Energy =   -92.8275480253 (+0.326 kcal/mol)
C        0.0194260556    0.0213642891    0.0000000000
N       -0.7589320377   -0.8347584640    0.0000000000
H        0.7395059821    0.8133941749    0.0000000000
