3    
Image 0/11, Energy =   -92.8141878334 (+8.384 kcal/mol)
C       -0.7519862184   -0.8272338399    0.0000000000
N        0.0394753354    0.0434721365    0.0000000000
H        0.7125108830    0.7837617034    0.0000000000
3    
Image 1/11, Energy =   -92.8039495601 (+14.808 kcal/mol)
C       -0.6231244443   -0.8498772605    0.0000000000
N       -0.1302641326    0.2138850583    0.0000000000
H        0.7533885769    0.6359922022    0.0000000000
3    
Image 2/11, Energy =   -92.7724206449 (+34.593 kcal/mol)
C       -0.4464321756   -0.8161758997   -0.0000000000
N       -0.2843401565    0.3642989999    0.0000000000
H        0.7307723321    0.4518768998    0.0000000000
3    
Image 3/11, Energy =   -92.7445961561 (+52.053 kcal/mol)
C       -0.2821131354   -0.7562308388   -0.0000000000
N       -0.4161112436    0.4299547802    0.0000000000
H        0.6982243790    0.3262760585    0.0000000000
3    
Image 4/11, Energy =   -92.7236064005 (+65.224 kcal/mol)
C       -0.1092497167   -0.6380872966    0.0000000000
N       -0.6387949884    0.4243207143    0.0000000000
H        0.7480447050    0.2137665823    0.0000000000
3    
Image 5/11, Energy =   -92.7438077978 (+52.548 kcal/mol)
C       -0.0043535492   -0.5071251153    0.0000000000
N       -0.8371213868    0.3088959496   -0.0000000000
H        0.8414749360    0.1982291656   -0.0000000000
3    
Image 6/11, Energy =   -92.7771365426 (+31.634 kcal/mol)
C        0.0509643337   -0.3815872278   -0.0000000000
N       -0.9689442922    0.1579589480   -0.0000000000
H        0.9179799585    0.2236282799   -0.0000000000
3    
Image 7/11, Energy =   -92.8144275374 (+8.233 kcal/mol)
C        0.1011077760   -0.1769962131    0.0000000000
N       -1.0336602850   -0.2836085623    0.0000000000
H        0.9325525090    0.4606047754   -0.0000000000
3    
Image 8/11, Energy =   -92.8239750297 (+2.242 kcal/mol)
C        0.0874557540   -0.0800642263    0.0000000000
N       -0.9748448524   -0.5165005354   -0.0000000000
H        0.8873890983    0.5965647617    0.0000000000
3    
Image 9/11, Energy =   -92.8271829714 (+0.229 kcal/mol)
C        0.0435463283   -0.0154563853   -0.0000000000
N       -0.8488329771   -0.7122463461    0.0000000000
H        0.8052866487    0.7277027314   -0.0000000000
3    
Image 10/11, Energy =   -92.8275480253 (+0.000 kcal/mol)
C        0.0194260556    0.0213642891    0.0000000000
N       -0.7589320377   -0.8347584640    0.0000000000
H        0.7395059821    0.8133941749    0.0000000000
