3    
Image 0/11, Energy =   -92.8148741520 (+8.372 kcal/mol)
C       -0.7423976108   -0.8166733369   -0.0000000000
N        0.0415634250    0.0457411997    0.0000000000
H        0.7008341911    0.7709321372    0.0000000000
3    
Image 1/11, Energy =   -92.8033722291 (+15.590 kcal/mol)
C       -0.5377372761   -0.9009357432    0.0000000000
N       -0.1519621327    0.2033276942    0.0000000000
H        0.6896994108    0.6976080506    0.0000000000
3    
Image 2/11, Energy =   -92.7749067271 (+33.452 kcal/mol)
C       -0.3533235700   -0.8703456605    0.0000000000
N       -0.3171668966    0.3172325050    0.0000000000
H        0.6704904676    0.5531131571    0.0000000000
3    
Image 3/11, Energy =   -92.7413384957 (+54.516 kcal/mol)
C       -0.1914647082   -0.7692591668   -0.0000000000
N       -0.4776824592    0.3880471553    0.0000000000
H        0.6691471679    0.3812120132    0.0000000000
3    
Image 4/11, Energy =   -92.7236051797 (+65.644 kcal/mol)
C       -0.0846033423   -0.6430756691   -0.0000000000
N       -0.6535940886    0.3989811349    0.0000000000
H        0.7381974312    0.2440945360    0.0000000000
3    
Image 5/11, Energy =   -92.7503468060 (+48.864 kcal/mol)
C       -0.0255422277   -0.4809543106   -0.0000000000
N       -0.8443623139    0.3441635640    0.0000000000
H        0.8699045418    0.1367907483    0.0000000000
3    
Image 6/11, Energy =   -92.7980202653 (+18.948 kcal/mol)
C        0.0147657102   -0.2942665969   -0.0000000000
N       -1.0039660996    0.2239679756    0.0000000000
H        0.9892003896    0.0702986228    0.0000000000
3    
Image 7/11, Energy =   -92.8241095067 (+2.577 kcal/mol)
C        0.0421945059   -0.1056848680   -0.0000000000
N       -1.0954776895   -0.0378317924    0.0000000000
H        1.0532831842    0.1435166622    0.0000000000
3    
Image 8/11, Energy =   -92.8279159503 (+0.188 kcal/mol)
C        0.0391431226   -0.0153125588    0.0000000000
N       -1.0509875797   -0.3538728445    0.0000000000
H        1.0118444576    0.3691854046    0.0000000000
3    
Image 9/11, Energy =   -92.8281577176 (+0.036 kcal/mol)
C        0.0305233436    0.0113938030    0.0000000000
N       -0.9262009267   -0.6121348248    0.0000000000
H        0.8956775835    0.6007410225   -0.0000000000
3    
Image 10/11, Energy =   -92.8282158336 (+0.000 kcal/mol)
C        0.0205086862    0.0225589462    0.0000000000
N       -0.7491295810   -0.8240317894   -0.0000000000
H        0.7286208949    0.8014728432    0.0000000000
