3    
Image 0/11, Energy =   -92.8141878334 (+8.710 kcal/mol)
C       -0.7519862184   -0.8272338399    0.0000000000
N        0.0394753354    0.0434721365    0.0000000000
H        0.7125108830    0.7837617034    0.0000000000
3    
Image 1/11, Energy =   -92.8047120843 (+14.656 kcal/mol)
C       -0.5962453717   -0.8724090430   -0.0000000000
N       -0.1329183192    0.2026894254    0.0000000000
H        0.7291636909    0.6697196177    0.0000000000
3    
Image 2/11, Energy =   -92.7750078526 (+33.295 kcal/mol)
C       -0.3822076220   -0.8595802448   -0.0000000000
N       -0.3054955606    0.3288216204    0.0000000000
H        0.6877031826    0.5307586244    0.0000000000
3    
Image 3/11, Energy =   -92.7467677951 (+51.016 kcal/mol)
C       -0.2392669792   -0.7822688124   -0.0000000000
N       -0.4338149473    0.3964984375   -0.0000000000
H        0.6730819265    0.3857703749   -0.0000000000
3    
Image 4/11, Energy =   -92.7236064005 (+65.550 kcal/mol)
C       -0.1092497167   -0.6380872966    0.0000000000
N       -0.6387949884    0.4243207143    0.0000000000
H        0.7480447050    0.2137665823    0.0000000000
3    
Image 5/11, Energy =   -92.7589171760 (+43.392 kcal/mol)
C       -0.0503239486   -0.4472556775    0.0000000000
N       -0.8485310131    0.3931797175    0.0000000000
H        0.8988549616    0.0540759599   -0.0000000000
3    
Image 6/11, Energy =   -92.8061382341 (+13.761 kcal/mol)
C       -0.0051123988   -0.2544053366    0.0000000000
N       -1.0045317373    0.3267786177    0.0000000000
H        1.0096441362   -0.0723732811   -0.0000000000
3    
Image 7/11, Energy =   -92.8241139033 (+2.481 kcal/mol)
C        0.0376077229   -0.1096877814    0.0000000000
N       -1.1004384020    0.0324408233    0.0000000000
H        1.0628306791    0.0772469581   -0.0000000000
3    
Image 8/11, Energy =   -92.8280674809 (+0.000 kcal/mol)
C        0.0225191092    0.0288870905    0.0000000000
N       -1.0644928309   -0.3262254018   -0.0000000000
H        1.0419737217    0.2973383114    0.0000000000
3    
Image 9/11, Energy =   -92.8280512917 (+0.010 kcal/mol)
C        0.0228669898    0.0286195523   -0.0000000000
N       -0.9782290122   -0.5369064695   -0.0000000000
H        0.9553620224    0.5082869173    0.0000000000
3    
Image 10/11, Energy =   -92.8275480253 (+0.326 kcal/mol)
C        0.0194260556    0.0213642891    0.0000000000
N       -0.7589320377   -0.8347584640    0.0000000000
H        0.7395059821    0.8133941749    0.0000000000
