3    
Image 0/11, Energy =   -92.8141878334 (+8.667 kcal/mol)
C       -0.7519862184   -0.8272338399    0.0000000000
N        0.0394753354    0.0434721365    0.0000000000
H        0.7125108830    0.7837617034    0.0000000000
3    
Image 1/11, Energy =   -92.8045124736 (+14.739 kcal/mol)
C       -0.6007525991   -0.8680920157   -0.0000000000
N       -0.1332979555    0.2047605801    0.0000000000
H        0.7340505546    0.6633314356    0.0000000000
3    
Image 2/11, Energy =   -92.7749701593 (+33.277 kcal/mol)
C       -0.3853305371   -0.8580521093   -0.0000000000
N       -0.3044520169    0.3301148857    0.0000000000
H        0.6897825540    0.5279372235    0.0000000000
3    
Image 3/11, Energy =   -92.7467741361 (+50.970 kcal/mol)
C       -0.2383651706   -0.7822562398    0.0000000000
N       -0.4339614351    0.3958645379   -0.0000000000
H        0.6723266057    0.3863917018   -0.0000000000
3    
Image 4/11, Energy =   -92.7236064005 (+65.508 kcal/mol)
C       -0.1092497167   -0.6380872966    0.0000000000
N       -0.6387949884    0.4243207143    0.0000000000
H        0.7480447050    0.2137665823    0.0000000000
3    
Image 5/11, Energy =   -92.7587825440 (+43.435 kcal/mol)
C       -0.0517359777   -0.4466496151   -0.0000000000
N       -0.8458784627    0.3965670592    0.0000000000
H        0.8976144404    0.0500825559    0.0000000000
3    
Image 6/11, Energy =   -92.8066084008 (+13.424 kcal/mol)
C       -0.0085205362   -0.2511571643    0.0000000000
N       -1.0003721494    0.3278823400   -0.0000000000
H        1.0088926856   -0.0767251757   -0.0000000000
3    
Image 7/11, Energy =   -92.7914626477 (+22.928 kcal/mol)
C        0.0078652085   -0.1094568983    0.0000000000
N       -1.0319308679    0.0031104792    0.0000000000
H        1.0240656594    0.1063464191   -0.0000000000
3    
Image 8/11, Energy =   -92.8280001590 (+0.000 kcal/mol)
C        0.0242509531    0.0322433678    0.0000000000
N       -1.0634895863   -0.3216613816    0.0000000000
H        1.0392386332    0.2894180138    0.0000000000
3    
Image 9/11, Energy =   -92.8279806201 (+0.012 kcal/mol)
C        0.0217595730    0.0329086442    0.0000000000
N       -0.9758961491   -0.5379042577   -0.0000000000
H        0.9541365761    0.5049956136    0.0000000000
3    
Image 10/11, Energy =   -92.8275480253 (+0.284 kcal/mol)
C        0.0194260556    0.0213642891    0.0000000000
N       -0.7589320377   -0.8347584640    0.0000000000
H        0.7395059821    0.8133941749    0.0000000000
