3    
Image 0/11, Energy =   -92.8148741520 (+8.372 kcal/mol)
C       -0.7423976055   -0.8166733316   -0.0000000000
N        0.0415634250    0.0457411997    0.0000000000
H        0.7008341858    0.7709321319    0.0000000000
3    
Image 1/11, Energy =   -92.8035833530 (+15.457 kcal/mol)
C       -0.5474031792   -0.8973212403    0.0000000000
N       -0.1495425846    0.2040202577    0.0000000000
H        0.6969457654    0.6933009797    0.0000000000
3    
Image 2/11, Energy =   -92.7744730626 (+33.724 kcal/mol)
C       -0.3727277546   -0.8607404373    0.0000000000
N       -0.3106164295    0.3271525693    0.0000000000
H        0.6833441846    0.5335878642    0.0000000000
3    
Image 3/11, Energy =   -92.7422179178 (+53.965 kcal/mol)
C       -0.2158086727   -0.7662436311    0.0000000000
N       -0.4600977176    0.4019362270    0.0000000000
H        0.6759063904    0.3643074000    0.0000000000
3    
Image 4/11, Energy =   -92.7236067975 (+65.643 kcal/mol)
C       -0.1038564901   -0.6407811219    0.0000000000
N       -0.6401078125    0.4186157831    0.0000000000
H        0.7439643027    0.2221653347    0.0000000000
3    
Image 5/11, Energy =   -92.7495009045 (+49.394 kcal/mol)
C       -0.0452092029   -0.4828811577    0.0000000000
N       -0.8267887284    0.3794979750    0.0000000000
H        0.8719979313    0.1033831786    0.0000000000
3    
Image 6/11, Energy =   -92.7969436146 (+19.624 kcal/mol)
C       -0.0060904986   -0.3003427074    0.0000000000
N       -0.9831676134    0.2964744192    0.0000000000
H        0.9892581121    0.0038682841    0.0000000000
3    
Image 7/11, Energy =   -92.8252969260 (+1.832 kcal/mol)
C        0.0295260406   -0.0933100998    0.0000000000
N       -1.0972206268    0.0835911468    0.0000000000
H        1.0676945863    0.0097189492    0.0000000000
3    
Image 8/11, Energy =   -92.8281199248 (+0.060 kcal/mol)
C        0.0338945695   -0.0064133053    0.0000000000
N       -1.0791357573   -0.2622703665    0.0000000000
H        1.0452411878    0.2686836694    0.0000000000
3    
Image 9/11, Energy =   -92.8281923229 (+0.015 kcal/mol)
C        0.0278497459    0.0145887511    0.0000000000
N       -0.9539785111   -0.5696159060    0.0000000000
H        0.9261287652    0.5550271537    0.0000000000
3    
Image 10/11, Energy =   -92.8282158335 (+0.000 kcal/mol)
C        0.0205086862    0.0225589462    0.0000000000
N       -0.7491295810   -0.8240317894   -0.0000000000
H        0.7286208949    0.8014728432    0.0000000000
