3    
Image 0/11, Energy =   -92.8148741520 (+8.372 kcal/mol)
C       -0.7423976108   -0.8166733369   -0.0000000000
N        0.0415634250    0.0457411997    0.0000000000
H        0.7008341911    0.7709321372    0.0000000000
3    
Image 1/11, Energy =   -92.8032003851 (+15.697 kcal/mol)
C       -0.5378530882   -0.8998758284    0.0000000000
N       -0.1529541190    0.2044919997    0.0000000000
H        0.6908072092    0.6953838301    0.0000000000
3    
Image 2/11, Energy =   -92.7740086568 (+34.016 kcal/mol)
C       -0.3509722509   -0.8675062126    0.0000000000
N       -0.3202279623    0.3208071235    0.0000000000
H        0.6712002141    0.5466990906    0.0000000000
3    
Image 3/11, Energy =   -92.7411792797 (+54.616 kcal/mol)
C       -0.1911236316   -0.7684515229   -0.0000000000
N       -0.4781201457    0.3890737933    0.0000000000
H        0.6692437777    0.3793777313    0.0000000000
3    
Image 4/11, Energy =   -92.7236051797 (+65.644 kcal/mol)
C       -0.0846033423   -0.6430756691   -0.0000000000
N       -0.6535940886    0.3989811349    0.0000000000
H        0.7381974312    0.2440945360    0.0000000000
3    
Image 5/11, Energy =   -92.7453254556 (+52.014 kcal/mol)
C       -0.0324542626   -0.5001465479    0.0000000000
N       -0.8234989831    0.3563452108    0.0000000000
H        0.8559532461    0.1438013389    0.0000000000
3    
Image 6/11, Energy =   -92.7893566783 (+24.384 kcal/mol)
C        0.0042693511   -0.3338610810    0.0000000000
N       -0.9728568069    0.2659468131    0.0000000000
H        0.9685874561    0.0679142697    0.0000000000
3    
Image 7/11, Energy =   -92.8205917027 (+4.784 kcal/mol)
C        0.0351435083   -0.1478124718    0.0000000000
N       -1.0837715614    0.0662650506    0.0000000000
H        1.0486280530    0.0815474228    0.0000000000
3    
Image 8/11, Energy =   -92.8276147589 (+0.377 kcal/mol)
C        0.0409725709   -0.0295087255   -0.0000000000
N       -1.0737761027   -0.2683560555    0.0000000000
H        1.0328035312    0.2978647819    0.0000000000
3    
Image 9/11, Energy =   -92.8281164371 (+0.062 kcal/mol)
C        0.0321963033    0.0087455179   -0.0000000000
N       -0.9502797541   -0.5717494812    0.0000000000
H        0.9180834502    0.5630039633    0.0000000000
3    
Image 10/11, Energy =   -92.8282158336 (+0.000 kcal/mol)
C        0.0205086862    0.0225589462    0.0000000000
N       -0.7491295810   -0.8240317894   -0.0000000000
H        0.7286208949    0.8014728432    0.0000000000
