3    
Image 0/11, Energy =   -92.8148741520 (+8.372 kcal/mol)
C       -0.7423976108   -0.8166733369   -0.0000000000
N        0.0415634250    0.0457411997    0.0000000000
H        0.7008341911    0.7709321372    0.0000000000
3    
Image 1/11, Energy =   -92.8032003851 (+15.697 kcal/mol)
C       -0.5378530882   -0.8998758284    0.0000000000
N       -0.1529541190    0.2044919997    0.0000000000
H        0.6908072092    0.6953838301    0.0000000000
3    
Image 2/11, Energy =   -92.7744678238 (+33.727 kcal/mol)
C       -0.3519454225   -0.8690709187    0.0000000000
N       -0.3187571025    0.3189194257    0.0000000000
H        0.6707025260    0.5501514945    0.0000000000
3    
Image 3/11, Energy =   -92.7411792797 (+54.616 kcal/mol)
C       -0.1911236316   -0.7684515229   -0.0000000000
N       -0.4781201457    0.3890737933    0.0000000000
H        0.6692437777    0.3793777313    0.0000000000
3    
Image 4/11, Energy =   -92.7236051797 (+65.644 kcal/mol)
C       -0.0846033423   -0.6430756691   -0.0000000000
N       -0.6535940886    0.3989811349    0.0000000000
H        0.7381974312    0.2440945360    0.0000000000
3    
Image 5/11, Energy =   -92.7497540013 (+49.236 kcal/mol)
C       -0.0259174534   -0.4831400723   -0.0000000000
N       -0.8421365616    0.3452186771    0.0000000000
H        0.8680540154    0.1379213969    0.0000000000
3    
Image 6/11, Energy =   -92.7970006760 (+19.588 kcal/mol)
C        0.0129989222   -0.2992095486   -0.0000000000
N       -0.9998615735    0.2312308007    0.0000000000
H        0.9868626514    0.0679787495    0.0000000000
3    
Image 7/11, Energy =   -92.8238063116 (+2.767 kcal/mol)
C        0.0411426403   -0.1103807725   -0.0000000000
N       -1.0952184016   -0.0221562983    0.0000000000
H        1.0540757617    0.1325370725    0.0000000000
3    
Image 8/11, Energy =   -92.8278711379 (+0.216 kcal/mol)
C        0.0396109694   -0.0181472746    0.0000000000
N       -1.0554968042   -0.3397462624    0.0000000000
H        1.0158858351    0.3578935382    0.0000000000
3    
Image 9/11, Energy =   -92.8281577078 (+0.036 kcal/mol)
C        0.0307233781    0.0111625647    0.0000000000
N       -0.9307254198   -0.6053357473    0.0000000000
H        0.9000020419    0.5941731831   -0.0000000000
3    
Image 10/11, Energy =   -92.8282158336 (+0.000 kcal/mol)
C        0.0205086862    0.0225589462    0.0000000000
N       -0.7491295810   -0.8240317894   -0.0000000000
H        0.7286208949    0.8014728432    0.0000000000
