3    
Image 0/11, Energy =   -92.8148741520 (+8.372 kcal/mol)
C       -0.7423976108   -0.8166733369   -0.0000000000
N        0.0415634250    0.0457411997    0.0000000000
H        0.7008341911    0.7709321372    0.0000000000
3    
Image 1/11, Energy =   -92.8032003851 (+15.697 kcal/mol)
C       -0.5378530882   -0.8998758284    0.0000000000
N       -0.1529541190    0.2044919997    0.0000000000
H        0.6908072092    0.6953838301    0.0000000000
3    
Image 2/11, Energy =   -92.7740086568 (+34.016 kcal/mol)
C       -0.3509722509   -0.8675062126    0.0000000000
N       -0.3202279623    0.3208071235    0.0000000000
H        0.6712002141    0.5466990906    0.0000000000
3    
Image 3/11, Energy =   -92.7411792797 (+54.616 kcal/mol)
C       -0.1911236316   -0.7684515229   -0.0000000000
N       -0.4781201457    0.3890737933    0.0000000000
H        0.6692437777    0.3793777313    0.0000000000
3    
Image 4/11, Energy =   -92.7236051797 (+65.644 kcal/mol)
C       -0.0846033423   -0.6430756691   -0.0000000000
N       -0.6535940886    0.3989811349    0.0000000000
H        0.7381974312    0.2440945360    0.0000000000
3    
Image 5/11, Energy =   -92.7448167332 (+52.334 kcal/mol)
C       -0.0332112966   -0.5021217400    0.0000000000
N       -0.8212704261    0.3575585531    0.0000000000
H        0.8544817230    0.1445631887    0.0000000000
3    
Image 6/11, Energy =   -92.7873659575 (+25.634 kcal/mol)
C        0.0012500208   -0.3422804736    0.0000000000
N       -0.9652302210    0.2759988496    0.0000000000
H        0.9639802004    0.0662816257    0.0000000000
3    
Image 7/11, Energy =   -92.8192663397 (+5.616 kcal/mol)
C        0.0332387681   -0.1607040936    0.0000000000
N       -1.0786821811    0.0882676658    0.0000000000
H        1.0454434130    0.0724364294    0.0000000000
3    
Image 8/11, Energy =   -92.8275072792 (+0.445 kcal/mol)
C        0.0416604893   -0.0336841280   -0.0000000000
N       -1.0776491957   -0.2505188722    0.0000000000
H        1.0359887060    0.2842030011    0.0000000000
3    
Image 9/11, Energy =   -92.8281078647 (+0.068 kcal/mol)
C        0.0324875543    0.0083086023   -0.0000000000
N       -0.9546957992   -0.5639344374    0.0000000000
H        0.9222082443    0.5556258351    0.0000000000
3    
Image 10/11, Energy =   -92.8282158336 (+0.000 kcal/mol)
C        0.0205086862    0.0225589462    0.0000000000
N       -0.7491295810   -0.8240317894   -0.0000000000
H        0.7286208949    0.8014728432    0.0000000000
