3    
Image 0/11, Energy =   -92.8148741520 (+8.372 kcal/mol)
C       -0.7423976108   -0.8166733316    0.0000000000
N        0.0415634250    0.0457411997   -0.0000000000
H        0.7008341858    0.7709321319   -0.0000000000
3    
Image 1/11, Energy =   -92.8043931846 (+14.949 kcal/mol)
C       -0.5373351391   -0.9082222009    0.0000000000
N       -0.1471976581    0.1965013264    0.0000000000
H        0.6845327972    0.7117208745   -0.0000000000
3    
Image 2/11, Energy =   -92.7764101859 (+32.509 kcal/mol)
C       -0.3793890822   -0.8665816960    0.0000000000
N       -0.3031049540    0.3206247731    0.0000000000
H        0.6824940414    0.5459569281   -0.0000000000
3    
Image 3/11, Energy =   -92.7434262846 (+53.206 kcal/mol)
C       -0.2255266488   -0.7693111087    0.0000000000
N       -0.4502195048    0.4036933501    0.0000000000
H        0.6757461536    0.3656177586   -0.0000000000
3    
Image 4/11, Energy =   -92.7236053086 (+65.644 kcal/mol)
C       -0.1079946492   -0.6389482869    0.0000000000
N       -0.6380970207    0.4236373724    0.0000000000
H        0.7460916699    0.2153109145   -0.0000000000
3    
Image 5/11, Energy =   -92.7517309884 (+47.995 kcal/mol)
C       -0.0475460697   -0.4742973060    0.0000000000
N       -0.8313915702    0.3848469366   -0.0000000000
H        0.8789376399    0.0894503694   -0.0000000000
3    
Image 6/11, Energy =   -92.8017047765 (+16.636 kcal/mol)
C       -0.0069963842   -0.2774074948   -0.0000000000
N       -0.9940261054    0.3011441831   -0.0000000000
H        1.0010224896   -0.0237366883    0.0000000000
3    
Image 7/11, Energy =   -92.8276517907 (+0.354 kcal/mol)
C        0.0314530518   -0.0403220459   -0.0000000000
N       -1.1091770365    0.0097354549    0.0000000000
H        1.0777239799    0.0305865865    0.0000000000
3    
Image 8/11, Energy =   -92.8282087601 (+0.004 kcal/mol)
C        0.0298196772    0.0078767720   -0.0000000000
N       -1.0488363246   -0.3706545669    0.0000000000
H        1.0190166421    0.3627777996    0.0000000000
3    
Image 9/11, Energy =   -92.8282139926 (+0.001 kcal/mol)
C        0.0254049086    0.0175208587    0.0000000000
N       -0.9132428237   -0.6361933355   -0.0000000000
H        0.8878379100    0.6186724770    0.0000000000
3    
Image 10/11, Energy =   -92.8282158335 (+0.000 kcal/mol)
C        0.0205086862    0.0225589462   -0.0000000000
N       -0.7491295810   -0.8240317894    0.0000000000
H        0.7286208949    0.8014728432   -0.0000000000
