3    
Image 0/11, Energy =   -92.8141878334 (+8.746 kcal/mol)
C       -0.7519862184   -0.8272338399    0.0000000000
N        0.0394753354    0.0434721365    0.0000000000
H        0.7125108830    0.7837617034    0.0000000000
3    
Image 1/11, Energy =   -92.8040080802 (+15.134 kcal/mol)
C       -0.6170388192   -0.8549980702   -0.0000000000
N       -0.1315977233    0.2126565617    0.0000000000
H        0.7486365425    0.6423415085    0.0000000000
3    
Image 2/11, Energy =   -92.7736008784 (+34.215 kcal/mol)
C       -0.4172961100   -0.8369231689   -0.0000000000
N       -0.2951625592    0.3480347319    0.0000000000
H        0.7124586693    0.4888884370    0.0000000000
3    
Image 3/11, Energy =   -92.7463166898 (+51.336 kcal/mol)
C       -0.2510719805   -0.7768621986    0.0000000000
N       -0.4299727717    0.4045042528    0.0000000000
H        0.6810447522    0.3723579458    0.0000000000
3    
Image 4/11, Energy =   -92.7236064005 (+65.587 kcal/mol)
C       -0.1092497167   -0.6380872966    0.0000000000
N       -0.6387949884    0.4243207143    0.0000000000
H        0.7480447050    0.2137665823    0.0000000000
3    
Image 5/11, Energy =   -92.7550470376 (+45.857 kcal/mol)
C       -0.0448085657   -0.4648873506    0.0000000000
N       -0.8455537205    0.3815436927    0.0000000000
H        0.8903622863    0.0833436579   -0.0000000000
3    
Image 6/11, Energy =   -92.7985976001 (+18.529 kcal/mol)
C       -0.0019269323   -0.2947578699    0.0000000000
N       -0.9993461434    0.2603775134   -0.0000000000
H        1.0012730757    0.0343803566   -0.0000000000
3    
Image 7/11, Energy =   -92.8275951238 (+0.333 kcal/mol)
C        0.0361771194   -0.0282841357    0.0000000000
N       -1.0748337818   -0.3095034282    0.0000000000
H        1.0386566623    0.3377875638   -0.0000000000
3    
Image 8/11, Energy =   -92.8277227172 (+0.253 kcal/mol)
C        0.0366122893    0.0061958385    0.0000000000
N       -0.9865088229   -0.5345878337   -0.0000000000
H        0.9498965336    0.5283919952    0.0000000000
3    
Image 9/11, Energy =   -92.8281253121 (+0.000 kcal/mol)
C        0.0224629423    0.0246548469   -0.0000000000
N       -0.8417699459   -0.7334803681    0.0000000000
H        0.8193070036    0.7088255212   -0.0000000000
3    
Image 10/11, Energy =   -92.8275480253 (+0.362 kcal/mol)
C        0.0194260556    0.0213642891    0.0000000000
N       -0.7589320377   -0.8347584640    0.0000000000
H        0.7395059821    0.8133941749    0.0000000000
