3    
Image 0/11, Energy =   -92.8141878334 (+8.704 kcal/mol)
C       -0.7519862184   -0.8272338399    0.0000000000
N        0.0394753354    0.0434721365    0.0000000000
H        0.7125108830    0.7837617034    0.0000000000
3    
Image 1/11, Energy =   -92.8045276832 (+14.766 kcal/mol)
C       -0.6005450963   -0.8685653690   -0.0000000000
N       -0.1331318604    0.2048999691    0.0000000000
H        0.7336769567    0.6636654000    0.0000000000
3    
Image 2/11, Energy =   -92.7749735064 (+33.311 kcal/mol)
C       -0.3851350070   -0.8581297444   -0.0000000000
N       -0.3045140336    0.3300061217    0.0000000000
H        0.6896490407    0.5281236227    0.0000000000
3    
Image 3/11, Energy =   -92.7467745510 (+51.006 kcal/mol)
C       -0.2384096359   -0.7823253773    0.0000000000
N       -0.4339717008    0.3959740777   -0.0000000000
H        0.6723813367    0.3863512996   -0.0000000000
3    
Image 4/11, Energy =   -92.7236064005 (+65.545 kcal/mol)
C       -0.1092497167   -0.6380872966    0.0000000000
N       -0.6387949884    0.4243207143    0.0000000000
H        0.7480447050    0.2137665823    0.0000000000
3    
Image 5/11, Energy =   -92.7587901809 (+43.466 kcal/mol)
C       -0.0515132706   -0.4468738414   -0.0000000000
N       -0.8461809124    0.3965146947    0.0000000000
H        0.8976941830    0.0503591467    0.0000000000
3    
Image 6/11, Energy =   -92.8067044118 (+13.400 kcal/mol)
C       -0.0097142301   -0.2507576506    0.0000000000
N       -0.9998646737    0.3284489836   -0.0000000000
H        1.0095789038   -0.0776913330   -0.0000000000
3    
Image 7/11, Energy =   -92.8152636365 (+8.029 kcal/mol)
C        0.0320937948   -0.1105097312    0.0000000000
N       -1.0569948534    0.0055668443    0.0000000000
H        1.0249010586    0.1049428869   -0.0000000000
3    
Image 8/11, Energy =   -92.8280101981 (+0.030 kcal/mol)
C        0.0240812726    0.0318681352    0.0000000000
N       -1.0635987923   -0.3216079085    0.0000000000
H        1.0395175197    0.2897397733    0.0000000000
3    
Image 9/11, Energy =   -92.8280584293 (+0.000 kcal/mol)
C        0.0206261191    0.0319685193   -0.0000000000
N       -0.9751362801   -0.5372648445   -0.0000000000
H        0.9545101610    0.5052963252    0.0000000000
3    
Image 10/11, Energy =   -92.8275480253 (+0.320 kcal/mol)
C        0.0194260556    0.0213642891    0.0000000000
N       -0.7589320377   -0.8347584640    0.0000000000
H        0.7395059821    0.8133941749    0.0000000000
