3    
Image 0/11, Energy =   -92.8148741520 (+8.372 kcal/mol)
C       -0.7423976055   -0.8166733316   -0.0000000000
N        0.0415634250    0.0457411997    0.0000000000
H        0.7008341858    0.7709321319    0.0000000000
3    
Image 1/11, Energy =   -92.8035833530 (+15.457 kcal/mol)
C       -0.5474031792   -0.8973212403    0.0000000000
N       -0.1495425846    0.2040202577    0.0000000000
H        0.6969457654    0.6933009797    0.0000000000
3    
Image 2/11, Energy =   -92.7743911707 (+33.775 kcal/mol)
C       -0.3714493764   -0.8610876887    0.0000000000
N       -0.3112650831    0.3272879720    0.0000000000
H        0.6827144599    0.5337997129    0.0000000000
3    
Image 3/11, Energy =   -92.7422179178 (+53.965 kcal/mol)
C       -0.2158086727   -0.7662436311    0.0000000000
N       -0.4600977176    0.4019362270    0.0000000000
H        0.6759063904    0.3643074000    0.0000000000
3    
Image 4/11, Energy =   -92.7236067975 (+65.643 kcal/mol)
C       -0.1038564901   -0.6407811219    0.0000000000
N       -0.6401078125    0.4186157831    0.0000000000
H        0.7439643027    0.2221653347    0.0000000000
3    
Image 5/11, Energy =   -92.7487646989 (+49.856 kcal/mol)
C       -0.0461355673   -0.4856607527    0.0000000000
N       -0.8238541707    0.3809564681    0.0000000000
H        0.8699897380    0.1047042805    0.0000000000
3    
Image 6/11, Energy =   -92.7952383396 (+20.694 kcal/mol)
C       -0.0082715849   -0.3082520170    0.0000000000
N       -0.9768887673    0.3033548388    0.0000000000
H        0.9851603523    0.0048971742    0.0000000000
3    
Image 7/11, Energy =   -92.8240030474 (+2.644 kcal/mol)
C        0.0269425072   -0.1126655373    0.0000000000
N       -1.0905201502    0.1157831086    0.0000000000
H        1.0635776430   -0.0031175750    0.0000000000
3    
Image 8/11, Energy =   -92.8281091226 (+0.067 kcal/mol)
C        0.0340758968   -0.0078722319    0.0000000000
N       -1.0830081574   -0.2454339774    0.0000000000
H        1.0489322606    0.2533062068    0.0000000000
3    
Image 9/11, Energy =   -92.8281915140 (+0.015 kcal/mol)
C        0.0280638806    0.0143413679    0.0000000000
N       -0.9581595334   -0.5625218169    0.0000000000
H        0.9300956529    0.5481804478    0.0000000000
3    
Image 10/11, Energy =   -92.8282158335 (+0.000 kcal/mol)
C        0.0205086862    0.0225589462    0.0000000000
N       -0.7491295810   -0.8240317894   -0.0000000000
H        0.7286208949    0.8014728432    0.0000000000
