3    
Image 0/11, Energy =   -92.8141878334 (+8.663 kcal/mol)
C       -0.7519862184   -0.8272338399    0.0000000000
N        0.0394753354    0.0434721365    0.0000000000
H        0.7125108830    0.7837617034    0.0000000000
3    
Image 1/11, Energy =   -92.8039553074 (+15.084 kcal/mol)
C       -0.6220077526   -0.8508301197   -0.0000000000
N       -0.1305674626    0.2137140891    0.0000000000
H        0.7525752151    0.6371160305    0.0000000000
3    
Image 2/11, Energy =   -92.7726972349 (+34.699 kcal/mol)
C       -0.4383285815   -0.8219131774   -0.0000000000
N       -0.2875586880    0.3600938651    0.0000000000
H        0.7258872695    0.4618193124    0.0000000000
3    
Image 3/11, Energy =   -92.7452666610 (+51.912 kcal/mol)
C       -0.2717778268   -0.7637910125   -0.0000000000
N       -0.4208095715    0.4208056656    0.0000000000
H        0.6925873983    0.3429853469    0.0000000000
3    
Image 4/11, Energy =   -92.7236064005 (+65.504 kcal/mol)
C       -0.1092497167   -0.6380872966    0.0000000000
N       -0.6387949884    0.4243207143    0.0000000000
H        0.7480447050    0.2137665823    0.0000000000
3    
Image 5/11, Energy =   -92.7478485699 (+50.292 kcal/mol)
C       -0.0169679238   -0.4943099726    0.0000000000
N       -0.8445407669    0.3368394816   -0.0000000000
H        0.8615086907    0.1574704910   -0.0000000000
3    
Image 6/11, Energy =   -92.7850370021 (+26.956 kcal/mol)
C        0.0319487260   -0.3525925768   -0.0000000000
N       -0.9820765796    0.1899487547   -0.0000000000
H        0.9501278535    0.1626438221   -0.0000000000
3    
Image 7/11, Energy =   -92.8211606630 (+4.288 kcal/mol)
C        0.0800564060   -0.1260012897    0.0000000000
N       -1.0513613288   -0.2931026205    0.0000000000
H        0.9713049228    0.4191039102   -0.0000000000
3    
Image 8/11, Energy =   -92.8262006222 (+1.125 kcal/mol)
C        0.0665187182   -0.0528491036    0.0000000000
N       -0.9786095173   -0.5203212650   -0.0000000000
H        0.9120907991    0.5731703686    0.0000000000
3    
Image 9/11, Energy =   -92.8279939845 (+0.000 kcal/mol)
C        0.0395977834    0.0032286811   -0.0000000000
N       -0.8500126617   -0.7228402483    0.0000000000
H        0.8104148783    0.7196115672   -0.0000000000
3    
Image 10/11, Energy =   -92.8275480253 (+0.280 kcal/mol)
C        0.0194260556    0.0213642891    0.0000000000
N       -0.7589320377   -0.8347584640    0.0000000000
H        0.7395059821    0.8133941749    0.0000000000
