3    
Image 0/11, Energy =   -92.8141878334 (+8.780 kcal/mol)
C       -0.7519862184   -0.8272338399    0.0000000000
N        0.0394753354    0.0434721365    0.0000000000
H        0.7125108830    0.7837617034    0.0000000000
3    
Image 1/11, Energy =   -92.8050019007 (+14.545 kcal/mol)
C       -0.5891939371   -0.8802389239   -0.0000000000
N       -0.1318220328    0.2005849516    0.0000000000
H        0.7210159699    0.6796539723    0.0000000000
3    
Image 2/11, Energy =   -92.7750365228 (+33.348 kcal/mol)
C       -0.3781058837   -0.8613918649   -0.0000000000
N       -0.3069780131    0.3270960006   -0.0000000000
H        0.6850838968    0.5342958643    0.0000000000
3    
Image 3/11, Energy =   -92.7467510975 (+51.097 kcal/mol)
C       -0.2403958885   -0.7822687415   -0.0000000000
N       -0.4334832163    0.3975897828   -0.0000000000
H        0.6738791048    0.3846789587   -0.0000000000
3    
Image 4/11, Energy =   -92.7236064005 (+65.621 kcal/mol)
C       -0.1092497167   -0.6380872966    0.0000000000
N       -0.6387949884    0.4243207143    0.0000000000
H        0.7480447050    0.2137665823    0.0000000000
3    
Image 5/11, Energy =   -92.7590170821 (+43.400 kcal/mol)
C       -0.0466813945   -0.4481231826    0.0000000000
N       -0.8520261301    0.3890077439    0.0000000000
H        0.8987075246    0.0591154387   -0.0000000000
3    
Image 6/11, Energy =   -92.8067525795 (+13.446 kcal/mol)
C       -0.0141837113   -0.2498136294    0.0000000000
N       -0.9991981999    0.3233478095    0.0000000000
H        1.0133819111   -0.0735341801   -0.0000000000
3    
Image 7/11, Energy =   -92.8261343207 (+1.284 kcal/mol)
C        0.0311695147   -0.0798033233    0.0000000000
N       -1.1111747939    0.0353496418    0.0000000000
H        1.0800052792    0.0444536815   -0.0000000000
3    
Image 8/11, Energy =   -92.8281522636 (+0.017 kcal/mol)
C        0.0248631905    0.0220795975    0.0000000000
N       -1.0645846101   -0.3264020496   -0.0000000000
H        1.0397214197    0.3043224521    0.0000000000
3    
Image 9/11, Energy =   -92.8281800412 (+0.000 kcal/mol)
C        0.0217094792    0.0213316370   -0.0000000000
N       -0.9773744492   -0.5322635416   -0.0000000000
H        0.9556649699    0.5109319046    0.0000000000
3    
Image 10/11, Energy =   -92.8275480253 (+0.397 kcal/mol)
C        0.0194260556    0.0213642891    0.0000000000
N       -0.7589320377   -0.8347584640    0.0000000000
H        0.7395059821    0.8133941749    0.0000000000
