3    
Image 0/11, Energy =   -92.8148741520 (+8.372 kcal/mol)
C       -0.7423976108   -0.8166733316    0.0000000000
N        0.0415634250    0.0457411997   -0.0000000000
H        0.7008341858    0.7709321319   -0.0000000000
3    
Image 1/11, Energy =   -92.8043931846 (+14.949 kcal/mol)
C       -0.5373351391   -0.9082222009    0.0000000000
N       -0.1471976581    0.1965013264    0.0000000000
H        0.6845327972    0.7117208745   -0.0000000000
3    
Image 2/11, Energy =   -92.7764101859 (+32.509 kcal/mol)
C       -0.3793890822   -0.8665816960    0.0000000000
N       -0.3031049540    0.3206247731    0.0000000000
H        0.6824940414    0.5459569281   -0.0000000000
3    
Image 3/11, Energy =   -92.7434262846 (+53.206 kcal/mol)
C       -0.2255266488   -0.7693111087    0.0000000000
N       -0.4502195048    0.4036933501    0.0000000000
H        0.6757461536    0.3656177586   -0.0000000000
3    
Image 4/11, Energy =   -92.7236053086 (+65.644 kcal/mol)
C       -0.1079946492   -0.6389482869    0.0000000000
N       -0.6380970207    0.4236373724    0.0000000000
H        0.7460916699    0.2153109145   -0.0000000000
3    
Image 5/11, Energy =   -92.7517309884 (+47.995 kcal/mol)
C       -0.0475460697   -0.4742973060    0.0000000000
N       -0.8313915702    0.3848469366   -0.0000000000
H        0.8789376399    0.0894503694   -0.0000000000
3    
Image 6/11, Energy =   -92.8016925633 (+16.644 kcal/mol)
C       -0.0070097883   -0.2774959467   -0.0000000000
N       -0.9939799030    0.3013371264    0.0000000000
H        1.0009896912   -0.0238411796    0.0000000000
3    
Image 7/11, Energy =   -92.8276376697 (+0.363 kcal/mol)
C        0.0316307760   -0.0410492292   -0.0000000000
N       -1.1092829812    0.0129467747    0.0000000000
H        1.0776522000    0.0281024498   -0.0000000000
3    
Image 8/11, Energy =   -92.8282093943 (+0.004 kcal/mol)
C        0.0299742432    0.0077684320    0.0000000000
N       -1.0499586817   -0.3678362358   -0.0000000000
H        1.0199844280    0.3600678139   -0.0000000000
3    
Image 9/11, Energy =   -92.8282140310 (+0.001 kcal/mol)
C        0.0253536413    0.0174088015    0.0000000000
N       -0.9142723711   -0.6346100355   -0.0000000000
H        0.8889187194    0.6172012343    0.0000000000
3    
Image 10/11, Energy =   -92.8282158335 (+0.000 kcal/mol)
C        0.0205086862    0.0225589462   -0.0000000000
N       -0.7491295810   -0.8240317894    0.0000000000
H        0.7286208949    0.8014728432   -0.0000000000
