3    
Image 0/11, Energy =   -92.8141878334 (+8.772 kcal/mol)
C       -0.7519862184   -0.8272338399    0.0000000000
N        0.0394753354    0.0434721365    0.0000000000
H        0.7125108830    0.7837617034    0.0000000000
3    
Image 1/11, Energy =   -92.8048238245 (+14.648 kcal/mol)
C       -0.5936743780   -0.8747848515   -0.0000000000
N       -0.1327656786    0.2014239430    0.0000000000
H        0.7264400567    0.6733609085    0.0000000000
3    
Image 2/11, Energy =   -92.7750173277 (+33.352 kcal/mol)
C       -0.3806354009   -0.8603460739   -0.0000000000
N       -0.3060727843    0.3282449142    0.0000000000
H        0.6867081851    0.5321011597    0.0000000000
3    
Image 3/11, Energy =   -92.7467615741 (+51.083 kcal/mol)
C       -0.2397597142   -0.7819930366   -0.0000000000
N       -0.4336257518    0.3965810513   -0.0000000000
H        0.6733854660    0.3854119852   -0.0000000000
3    
Image 4/11, Energy =   -92.7236064005 (+65.613 kcal/mol)
C       -0.1092497167   -0.6380872966    0.0000000000
N       -0.6387949884    0.4243207143    0.0000000000
H        0.7480447050    0.2137665823    0.0000000000
3    
Image 5/11, Energy =   -92.7589654036 (+43.425 kcal/mol)
C       -0.0493864531   -0.4471837028    0.0000000000
N       -0.8495340862    0.3912400466    0.0000000000
H        0.8989205393    0.0559436563   -0.0000000000
3    
Image 6/11, Energy =   -92.8067027881 (+13.469 kcal/mol)
C       -0.0109440221   -0.2518770246    0.0000000000
N       -1.0014488629    0.3246172313    0.0000000000
H        1.0123928850   -0.0727402067   -0.0000000000
3    
Image 7/11, Energy =   -92.8249159527 (+2.040 kcal/mol)
C        0.0346871548   -0.0999128897    0.0000000000
N       -1.1060891764    0.0349777000    0.0000000000
H        1.0714020216    0.0649351897   -0.0000000000
3    
Image 8/11, Energy =   -92.8281022827 (+0.041 kcal/mol)
C        0.0236737150    0.0266228408    0.0000000000
N       -1.0648322943   -0.3267325380   -0.0000000000
H        1.0411585793    0.3001096973    0.0000000000
3    
Image 9/11, Energy =   -92.8281671195 (+0.000 kcal/mol)
C        0.0213782437    0.0253097863   -0.0000000000
N       -0.9772599242   -0.5346748723   -0.0000000000
H        0.9558816805    0.5093650860    0.0000000000
3    
Image 10/11, Energy =   -92.8275480253 (+0.388 kcal/mol)
C        0.0194260556    0.0213642891    0.0000000000
N       -0.7589320377   -0.8347584640    0.0000000000
H        0.7395059821    0.8133941749    0.0000000000
