3    
Image 0/11, Energy =   -92.8148741520 (+8.372 kcal/mol)
C       -0.7423976055   -0.8166733316   -0.0000000000
N        0.0415634250    0.0457411997    0.0000000000
H        0.7008341858    0.7709321319    0.0000000000
3    
Image 1/11, Energy =   -92.8035833530 (+15.457 kcal/mol)
C       -0.5474031792   -0.8973212403    0.0000000000
N       -0.1495425846    0.2040202577    0.0000000000
H        0.6969457654    0.6933009797    0.0000000000
3    
Image 2/11, Energy =   -92.7743911707 (+33.775 kcal/mol)
C       -0.3714493764   -0.8610876887    0.0000000000
N       -0.3112650831    0.3272879720    0.0000000000
H        0.6827144599    0.5337997129    0.0000000000
3    
Image 3/11, Energy =   -92.7422179178 (+53.965 kcal/mol)
C       -0.2158086727   -0.7662436311    0.0000000000
N       -0.4600977176    0.4019362270    0.0000000000
H        0.6759063904    0.3643074000    0.0000000000
3    
Image 4/11, Energy =   -92.7236067975 (+65.643 kcal/mol)
C       -0.1038564901   -0.6407811219    0.0000000000
N       -0.6401078125    0.4186157831    0.0000000000
H        0.7439643027    0.2221653347    0.0000000000
3    
Image 5/11, Energy =   -92.7469422855 (+51.000 kcal/mol)
C       -0.0489755873   -0.4924867478    0.0000000000
N       -0.8160737280    0.3851182376    0.0000000000
H        0.8650493154    0.1073685061    0.0000000000
3    
Image 6/11, Energy =   -92.7917563768 (+22.879 kcal/mol)
C       -0.0124695822   -0.3237188437    0.0000000000
N       -0.9642869520    0.3159346174    0.0000000000
H        0.9767565342    0.0077842225    0.0000000000
3    
Image 7/11, Energy =   -92.8219483022 (+3.933 kcal/mol)
C        0.0224275042   -0.1374719099    0.0000000000
N       -1.0790871520    0.1578070717    0.0000000000
H        1.0566596478   -0.0203351655    0.0000000000
3    
Image 8/11, Energy =   -92.8280333206 (+0.115 kcal/mol)
C        0.0351106152   -0.0143692170    0.0000000000
N       -1.0885906552   -0.2167692576    0.0000000000
H        1.0534800400    0.2311384721    0.0000000000
3    
Image 9/11, Energy =   -92.8281872308 (+0.018 kcal/mol)
C        0.0286694409    0.0132911292    0.0000000000
N       -0.9657882418   -0.5489460046    0.0000000000
H        0.9371188009    0.5356548741    0.0000000000
3    
Image 10/11, Energy =   -92.8282158335 (+0.000 kcal/mol)
C        0.0205086862    0.0225589462    0.0000000000
N       -0.7491295810   -0.8240317894   -0.0000000000
H        0.7286208949    0.8014728432    0.0000000000
