3    
Image 0/11, Energy =   -92.8148741520 (+8.372 kcal/mol)
C       -0.7423976108   -0.8166733369   -0.0000000000
N        0.0415634250    0.0457411997    0.0000000000
H        0.7008341911    0.7709321372    0.0000000000
3    
Image 1/11, Energy =   -92.8035085708 (+15.504 kcal/mol)
C       -0.5372264080   -0.9020488156    0.0000000000
N       -0.1511878099    0.2023749198    0.0000000000
H        0.6884142201    0.6996738974    0.0000000000
3    
Image 2/11, Energy =   -92.7752043121 (+33.265 kcal/mol)
C       -0.3545184164   -0.8709844781   -0.0000000000
N       -0.3159572908    0.3160378471    0.0000000000
H        0.6704757081    0.5549466327    0.0000000000
3    
Image 3/11, Energy =   -92.7414715819 (+54.433 kcal/mol)
C       -0.1916583832   -0.7698181964   -0.0000000000
N       -0.4771853359    0.3872664702    0.0000000000
H        0.6688437197    0.3825517279    0.0000000000
3    
Image 4/11, Energy =   -92.7236039899 (+65.645 kcal/mol)
C       -0.0848153866   -0.6426353672   -0.0000000000
N       -0.6542224006    0.3987225697    0.0000000000
H        0.7390377875    0.2439127993    0.0000000000
3    
Image 5/11, Energy =   -92.7507581388 (+48.605 kcal/mol)
C       -0.0254153532   -0.4793498349   -0.0000000000
N       -0.8457799129    0.3434851104    0.0000000000
H        0.8711952663    0.1358647262    0.0000000000
3    
Image 6/11, Energy =   -92.7986021851 (+18.583 kcal/mol)
C        0.0162104794   -0.2914619899   -0.0000000000
N       -1.0067144497    0.2181823467    0.0000000000
H        0.9905039706    0.0732796448    0.0000000000
3    
Image 7/11, Energy =   -92.8242966153 (+2.459 kcal/mol)
C        0.0428103834   -0.1024551113   -0.0000000000
N       -1.0952449291   -0.0487250812    0.0000000000
H        1.0524345464    0.1511801942    0.0000000000
3    
Image 8/11, Energy =   -92.8279466630 (+0.169 kcal/mol)
C        0.0386106624   -0.0130274974    0.0000000000
N       -1.0475681230   -0.3636597798    0.0000000000
H        1.0089574613    0.3766872785   -0.0000000000
3    
Image 9/11, Energy =   -92.8281571839 (+0.037 kcal/mol)
C        0.0303910542    0.0115652694    0.0000000000
N       -0.9229057585   -0.6169914269    0.0000000000
H        0.8925147049    0.6054261582   -0.0000000000
3    
Image 10/11, Energy =   -92.8282158336 (+0.000 kcal/mol)
C        0.0205086862    0.0225589462    0.0000000000
N       -0.7491295810   -0.8240317894   -0.0000000000
H        0.7286208949    0.8014728432    0.0000000000
