3    
Image 0/11, Energy =   -92.8141878334 (+8.384 kcal/mol)
C       -0.7519862184   -0.8272338399    0.0000000000
N        0.0394753354    0.0434721365    0.0000000000
H        0.7125108830    0.7837617034    0.0000000000
3    
Image 1/11, Energy =   -92.8039492119 (+14.808 kcal/mol)
C       -0.6232522862   -0.8497153169    0.0000000000
N       -0.1302354807    0.2138623973    0.0000000000
H        0.7534877669    0.6358529196    0.0000000000
3    
Image 2/11, Energy =   -92.7723327926 (+34.648 kcal/mol)
C       -0.4528132723   -0.8125915465   -0.0000000000
N       -0.2814789012    0.3673588142    0.0000000000
H        0.7342921734    0.4452327324    0.0000000000
3    
Image 3/11, Energy =   -92.7435473520 (+52.711 kcal/mol)
C       -0.2933760613   -0.7457647150    0.0000000000
N       -0.4113634704    0.4411763953    0.0000000000
H        0.7047395317    0.3045883197    0.0000000000
3    
Image 4/11, Energy =   -92.7236064005 (+65.224 kcal/mol)
C       -0.1092497167   -0.6380872966    0.0000000000
N       -0.6387949884    0.4243207143    0.0000000000
H        0.7480447050    0.2137665823    0.0000000000
3    
Image 5/11, Energy =   -92.7360738835 (+57.401 kcal/mol)
C        0.0189388689   -0.5449499345    0.0000000000
N       -0.8311830022    0.3016559186   -0.0000000000
H        0.8122441333    0.2432940159   -0.0000000000
3    
Image 6/11, Energy =   -92.7675729867 (+37.635 kcal/mol)
C        0.0749547616   -0.4143177310   -0.0000000000
N       -0.9512789110    0.1257700388    0.0000000000
H        0.8763241494    0.2885476922   -0.0000000000
3    
Image 7/11, Energy =   -92.7949191626 (+20.475 kcal/mol)
C        0.1570692006   -0.2515076748    0.0000000000
N       -1.0465483915   -0.2463234141    0.0000000000
H        0.8894791909    0.4978310888   -0.0000000000
3    
Image 8/11, Energy =   -92.8210509421 (+4.077 kcal/mol)
C        0.1086936079   -0.1031689013    0.0000000000
N       -0.9599307293   -0.5204536923   -0.0000000000
H        0.8512371214    0.6236225936    0.0000000000
3    
Image 9/11, Energy =   -92.8268013746 (+0.469 kcal/mol)
C        0.0627297298   -0.0288656382   -0.0000000000
N       -0.8548002289   -0.7012539094    0.0000000000
H        0.7920704991    0.7301195475   -0.0000000000
3    
Image 10/11, Energy =   -92.8275480253 (+0.000 kcal/mol)
C        0.0194260556    0.0213642891    0.0000000000
N       -0.7589320377   -0.8347584640    0.0000000000
H        0.7395059821    0.8133941749    0.0000000000
