6    
Image 0/11, Energy =  -169.0522692293 (+0.000 kcal/mol)
C       -0.3689809232   -1.4576547332   -1.3858823910
C       -0.1536196575   -0.5941379364   -0.5627748996
H        0.0498937432    0.2058682499    0.1931202386
H       -0.5557149982   -2.2230003307   -2.1042277546
C        0.4068909404    1.6172446315    1.5286738868
N        0.6215308952    2.4516801189    2.3310909145
6    
Image 1/11, Energy =  -169.0494458608 (+1.772 kcal/mol)
C       -0.3598214370   -1.4444410561   -1.3698203138
C       -0.3053371941   -0.5397207002   -0.5608488435
H       -0.0820506751    0.3193123846    0.0954120882
H       -0.3959124075   -2.2642142898   -2.0290489249
C        0.4371306098    1.5558358480    1.5400768420
N        0.7059911094    2.3732278161    2.3242291527
6    
Image 2/11, Energy =  -169.0456744489 (+4.138 kcal/mol)
C       -0.3273339679   -1.4234504066   -1.3491749301
C       -0.4196675776   -0.4887105251   -0.5890861611
H       -0.2909841954    0.4081193832    0.0135830741
H       -0.2463647938   -2.2890026383   -1.9453504752
C        0.4953271578    1.4700076601    1.5681546642
N        0.7890233702    2.3230365221    2.3018738306
6    
Image 3/11, Energy =  -169.0429377947 (+5.856 kcal/mol)
C       -0.2993167649   -1.3933689835   -1.3169291589
C       -0.4927302254   -0.4255689382   -0.6297052783
H       -0.5329906750    0.4551430885   -0.0173162287
H       -0.0930920357   -2.2774882161   -1.8366362829
C        0.5539453555    1.4081257604    1.5208645345
N        0.8641843484    2.2331572966    2.2797224234
6    
Image 4/11, Energy =  -169.0353249706 (+10.633 kcal/mol)
C       -0.2807643628   -1.3584531235   -1.2542895189
C       -0.5269810769   -0.3383578737   -0.6419331541
H       -0.7507455330    0.5724902879   -0.1457651118
H        0.0661429792   -2.2578057744   -1.6476915197
C        0.5064906515    1.3898112184    1.4077020887
N        0.9858573389    1.9923152709    2.2819772146
6    
Image 5/11, Energy =  -169.0283686669 (+14.998 kcal/mol)
C       -0.2570586281   -1.3024057640   -1.1683397355
C       -0.5854251285   -0.2527832719   -0.6633986916
H       -0.9899084340    0.6579701370   -0.2911790985
H        0.2434347810   -2.1975558030   -1.4375981918
C        0.4923853657    1.3595349153    1.3195942006
N        1.0965720450    1.7352397911    2.2409215126
6    
Image 6/11, Energy =  -169.0209392325 (+19.660 kcal/mol)
C       -0.2393608209   -1.2444254062   -1.0774627049
C       -0.6320553924   -0.1764273792   -0.6696277461
H       -1.1767736507    0.7064226622   -0.3945028500
H        0.3930859643   -2.0995378785   -1.2495293105
C        0.4966343934    1.3083782182    1.2277072398
N        1.1584695031    1.5055897847    2.1634153752
6    
Image 7/11, Energy =  -169.0102242050 (+26.384 kcal/mol)
C       -0.2317740565   -1.1823253752   -0.9806920024
C       -0.6513753566   -0.1055279043   -0.6133418189
H       -1.2738246483    0.7612829386   -0.5019586005
H        0.5093371319   -1.9654300396   -1.0633680629
C        0.4806590142    1.2264039422    1.1113521072
N        1.1669779213    1.2655964341    2.0480083771
6    
Image 8/11, Energy =  -168.9930678538 (+37.149 kcal/mol)
C       -0.2468704144   -1.1221424431   -0.8921494853
C       -0.6234211958   -0.0037101971   -0.5122536533
H       -1.3238273113    0.8097191718   -0.5970570122
H        0.6119718805   -1.7928373122   -0.8550496670
C        0.4434216608    1.0821593344    0.9650804183
N        1.1387253818    1.0268114473    1.8914293969
6    
Image 9/11, Energy =  -169.0174047646 (+21.878 kcal/mol)
C       -0.2773227275   -1.0897249591   -0.9028551829
C       -0.5234101568    0.1218230346   -0.3717762521
H       -1.3135576337    0.8325506481   -0.6333962490
H        0.6556282977   -1.6502847709   -0.6743920790
C        0.3730258510    0.8386968473    0.8359470588
N        1.0856363668    0.9469391998    1.7464727024
6    
Image 10/11, Energy =  -169.0437609544 (+5.339 kcal/mol)
C       -0.2721093513   -1.0384613434   -0.9953339881
C       -0.4664498990    0.1336943575   -0.3047184047
H       -1.3026915424    0.8069996864   -0.5503883163
H        0.6404231461   -1.5232274468   -0.5526624607
C        0.3524169885    0.6272448767    0.7650856657
N        1.0484106581    0.9937498643    1.6380174988
