6    
Image 0/11, Energy =  -169.0522692293 (+0.398 kcal/mol)
C       -0.3689809232   -1.4576547332   -1.3858823910
C       -0.1536196575   -0.5941379364   -0.5627748996
H        0.0498937432    0.2058682499    0.1931202386
H       -0.5557149982   -2.2230003307   -2.1042277546
C        0.4068909404    1.6172446315    1.5286738868
N        0.6215308952    2.4516801189    2.3310909145
6    
Image 1/11, Energy =  -169.0529040220 (+0.000 kcal/mol)
C       -0.3438331614   -1.4592283344   -1.3595192786
C       -0.2646688322   -0.5258582222   -0.6110799502
H       -0.1456145170    0.2959884903    0.0878717371
H       -0.3961399380   -2.2833084905   -2.0080637732
C        0.3502939844    1.6668567236    1.5113112981
N        0.7999624478    2.3055498801    2.3794801013
6    
Image 2/11, Energy =  -169.0507407189 (+1.357 kcal/mol)
C       -0.3130607654   -1.4426562448   -1.3179236829
C       -0.3754566280   -0.4482849563   -0.6526404541
H       -0.3396400707    0.4128066442   -0.0016971023
H       -0.2282932163   -2.3221376620   -1.8829170375
C        0.3040267821    1.6956904236    1.4866040843
N        0.9524238881    2.1045817345    2.3685741251
6    
Image 3/11, Energy =  -169.0473946346 (+3.457 kcal/mol)
C       -0.2788641805   -1.4068697454   -1.2602112717
C       -0.4837246974   -0.3724168119   -0.6930477910
H       -0.5391668301    0.5209940346   -0.0991595164
H       -0.0557512649   -2.3194259645   -1.7256939971
C        0.2859119504    1.6957231002    1.4659626522
N        1.0715950388    1.8819953955    2.3121497701
6    
Image 4/11, Energy =  -169.0429502260 (+6.246 kcal/mol)
C       -0.2420228879   -1.3535027503   -1.1888595658
C       -0.5873806386   -0.3020966259   -0.7343342068
H       -0.7466456883    0.6153937637   -0.2136231666
H        0.1152361025   -2.2744085617   -1.5392992193
C        0.2979136052    1.6541987826    1.4436123794
N        1.1628993853    1.6604153720    2.2325035632
6    
Image 5/11, Energy =  -169.0374113743 (+9.722 kcal/mol)
C       -0.2072315724   -1.2821717072   -1.1071690814
C       -0.6802956840   -0.2376314674   -0.7703771147
H       -0.9556766903    0.6919542829   -0.3432149546
H        0.2774170184   -2.1842092967   -1.3287331649
C        0.3341505423    1.5530894230    1.4014892695
N        1.2316363483    1.4589687917    2.1480049220
6    
Image 6/11, Energy =  -169.0296833949 (+14.571 kcal/mol)
C       -0.1858772413   -1.1974044489   -1.0249004678
C       -0.7457086144   -0.1716448993   -0.7784504899
H       -1.1432444976    0.7511160803   -0.4655865174
H        0.4227625927   -2.0457381223   -1.1018644790
C        0.3824307571    1.3752805208    1.3055833677
N        1.2696369407    1.2883908870    2.0652185951
6    
Image 7/11, Energy =  -169.0138365274 (+24.515 kcal/mol)
C       -0.2011702073   -1.1310696494   -0.9896271512
C       -0.7294790930   -0.0897193660   -0.7076620124
H       -1.2774209698    0.7869046699   -0.5596837552
H        0.5259862157   -1.8789859647   -0.8903384944
C        0.4232557254    1.1289973767    1.1661181872
N        1.2588282131    1.1838727922    1.9811932696
6    
Image 8/11, Energy =  -168.9961774007 (+35.596 kcal/mol)
C       -0.2504077269   -1.1026246317   -1.0116465776
C       -0.6169741653    0.0073778973   -0.5403119470
H       -1.3248939833    0.7883303708   -0.6013570476
H        0.5686218692   -1.7399189019   -0.7533989218
C        0.4404996490    0.9005071392    1.0207446642
N        1.1831542250    1.1463279963    1.8859699147
6    
Image 9/11, Energy =  -169.0167556649 (+22.683 kcal/mol)
C       -0.2705570567   -1.0735665553   -1.0106195260
C       -0.5088423005    0.0878771750   -0.3873241339
H       -1.3085981930    0.7818401012   -0.5896811652
H        0.5834271745   -1.6879069023   -0.7048362646
C        0.4009583274    0.7806829408    0.9089297543
N        1.1036119258    1.1110731202    1.7835314393
6    
Image 10/11, Energy =  -169.0437609544 (+5.737 kcal/mol)
C       -0.2721093513   -1.0384613434   -0.9953339881
C       -0.4664498990    0.1336943575   -0.3047184047
H       -1.3026915424    0.8069996864   -0.5503883163
H        0.6404231461   -1.5232274468   -0.5526624607
C        0.3524169885    0.6272448767    0.7650856657
N        1.0484106581    0.9937498643    1.6380174988
