6    
Image 0/11, Energy =  -169.0522692293 (+0.338 kcal/mol)
C       -0.3689809232   -1.4576547332   -1.3858823910
C       -0.1536196575   -0.5941379364   -0.5627748996
H        0.0498937432    0.2058682499    0.1931202386
H       -0.5557149982   -2.2230003307   -2.1042277546
C        0.4068909404    1.6172446315    1.5286738868
N        0.6215308952    2.4516801189    2.3310909145
6    
Image 1/11, Energy =  -169.0528073052 (+0.000 kcal/mol)
C       -0.3467734680   -1.4538756196   -1.3611564418
C       -0.2725720090   -0.5256904745   -0.6065274821
H       -0.1449393218    0.2888275961    0.1014479918
H       -0.3908364487   -2.2749819436   -2.0132331873
C        0.3798265959    1.6378986387    1.5117531779
N        0.7752946462    2.3278218374    2.3677159529
6    
Image 2/11, Energy =  -169.0507268753 (+1.305 kcal/mol)
C       -0.3202819287   -1.4403248640   -1.3277223017
C       -0.3889562678   -0.4573036125   -0.6471144544
H       -0.3369365380    0.3904096259    0.0186198378
H       -0.2243303899   -2.3098806343   -1.9023668490
C        0.3593254813    1.6463461447    1.4861998916
N        0.9111796842    2.1707534149    2.3723838651
6    
Image 3/11, Energy =  -169.0474649093 (+3.352 kcal/mol)
C       -0.2897665881   -1.4108352590   -1.2789544794
C       -0.4977609933   -0.3921127145   -0.6853172232
H       -0.5299967451    0.4884437185   -0.0726220587
H       -0.0589870119   -2.3098121521   -1.7614952354
C        0.3543618134    1.6358888550    1.4529989067
N        1.0221495630    1.9884275777    2.3453900794
6    
Image 4/11, Energy =  -169.0430732970 (+6.108 kcal/mol)
C       -0.2573672496   -1.3651083711   -1.2125761812
C       -0.5955408289   -0.3282871428   -0.7219914398
H       -0.7244813411    0.5784742215   -0.1749642793
H        0.1025121879   -2.2712885542   -1.5917601397
C        0.3663466192    1.5954663032    1.4091176166
N        1.1085306015    1.7907436248    2.2921743971
6    
Image 5/11, Energy =  -169.0373333681 (+9.710 kcal/mol)
C       -0.2263195377   -1.3007426392   -1.1337369647
C       -0.6790867266   -0.2642065282   -0.7496586820
H       -0.9202155163    0.6582541799   -0.2890456510
H        0.2586608929   -2.1900119514   -1.3926171523
C        0.3945012046    1.5089724640    1.3470978862
N        1.1724596544    1.5877345483    2.2179605434
6    
Image 6/11, Energy =  -169.0289643754 (+14.962 kcal/mol)
C       -0.2054978456   -1.2199466499   -1.0541563290
C       -0.7337091220   -0.1924690788   -0.7522411806
H       -1.1101714743    0.7262650269   -0.4108472023
H        0.4052117312   -2.0602716524   -1.1624467420
C        0.4301803896    1.3585316874    1.2554019932
N        1.2139863063    1.3878907254    2.1242893900
6    
Image 7/11, Energy =  -169.0125561844 (+25.258 kcal/mol)
C       -0.2157499578   -1.1479187941   -1.0075813739
C       -0.7144038259   -0.1014917820   -0.6845006041
H       -1.2629840419    0.7686277833   -0.5189908392
H        0.5203810778   -1.8881909340   -0.9310336688
C        0.4563492533    1.1381423674    1.1299013837
N        1.2164074764    1.2308314487    2.0122049869
6    
Image 8/11, Energy =  -168.9961622595 (+35.545 kcal/mol)
C       -0.2550934831   -1.1080865344   -1.0110237550
C       -0.6120414322    0.0056698351   -0.5328080049
H       -1.3341038004    0.7747400056   -0.5811890655
H        0.5794678881   -1.7316785821   -0.7647588686
C        0.4550432238    0.9107096450    0.9979339579
N        1.1667275738    1.1486457566    1.8918455909
6    
Image 9/11, Energy =  -169.0200230413 (+20.572 kcal/mol)
C       -0.2730607642   -1.0752617410   -1.0076874635
C       -0.5040902002    0.0914189215   -0.3793217268
H       -1.3173999858    0.7733116711   -0.5733529845
H        0.5984909329   -1.6672082140   -0.6991739180
C        0.4046852664    0.7773847237    0.8847993960
N        1.0913747449    1.1003547413    1.7747365879
6    
Image 10/11, Energy =  -169.0437609544 (+5.677 kcal/mol)
C       -0.2721093513   -1.0384613434   -0.9953339881
C       -0.4664498990    0.1336943575   -0.3047184047
H       -1.3026915424    0.8069996864   -0.5503883163
H        0.6404231461   -1.5232274468   -0.5526624607
C        0.3524169885    0.6272448767    0.7650856657
N        1.0484106581    0.9937498643    1.6380174988
