6    
Image 0/11, Energy =  -169.0522692293 (+0.124 kcal/mol)
C       -0.3689809232   -1.4576547332   -1.3858823910
C       -0.1536196575   -0.5941379364   -0.5627748996
H        0.0498937432    0.2058682499    0.1931202386
H       -0.5557149982   -2.2230003307   -2.1042277546
C        0.4068909404    1.6172446315    1.5286738868
N        0.6215308952    2.4516801189    2.3310909145
6    
Image 1/11, Energy =  -169.0524665215 (+0.000 kcal/mol)
C       -0.3498779167   -1.4462645257   -1.3681894478
C       -0.2784818649   -0.5280529091   -0.6047950533
H       -0.1332215586    0.2748923693    0.1188196988
H       -0.4001644579   -2.2656981220   -2.0250482795
C        0.4332822770    1.5827310981    1.5394142459
N        0.7284635164    2.3823920838    2.3397988192
6    
Image 2/11, Energy =  -169.0497391817 (+1.711 kcal/mol)
C       -0.3273958033   -1.4324407152   -1.3380125141
C       -0.3977059640   -0.4606296591   -0.6439431810
H       -0.3197856146    0.3657287059    0.0498623047
H       -0.2396985618   -2.2931519081   -1.9284042879
C        0.4517739605    1.5401438105    1.5216159015
N        0.8328120052    2.2803497542    2.3388817651
6    
Image 3/11, Energy =  -169.0458556579 (+4.148 kcal/mol)
C       -0.2975086069   -1.4079277207   -1.2874984256
C       -0.5089106442   -0.3962810876   -0.6866738067
H       -0.5175046322    0.4616029786   -0.0388331410
H       -0.0764902141   -2.2940748727   -1.7997711696
C        0.4614200726    1.4988825901    1.4811244005
N        0.9389940216    2.1377981200    2.3316521355
6    
Image 4/11, Energy =  -169.0411803255 (+7.082 kcal/mol)
C       -0.2609495932   -1.3643629161   -1.2212416251
C       -0.6094521231   -0.3398933530   -0.7200952938
H       -0.7268434116    0.5534446318   -0.1473634140
H        0.0872277484   -2.2608751993   -1.6381341484
C        0.4683937526    1.4595022902    1.4167849957
N        1.0416236184    1.9521845301    2.3100494799
6    
Image 5/11, Energy =  -169.0360291561 (+10.315 kcal/mol)
C       -0.2228904617   -1.3042665488   -1.1373004377
C       -0.6898373930   -0.2808913306   -0.7415185564
H       -0.9247529435    0.6363366538   -0.2671518542
H        0.2409664733   -2.1906174281   -1.4454147739
C        0.4717734835    1.4237059791    1.3332159908
N        1.1247408512    1.7157326753    2.2581696170
6    
Image 6/11, Energy =  -169.0295387771 (+14.387 kcal/mol)
C       -0.1934729441   -1.2295021208   -1.0432525059
C       -0.7404096601   -0.2110168767   -0.7411514146
H       -1.1013476772    0.7104359449   -0.3886035296
H        0.3844272546   -2.0805911070   -1.2235369317
C        0.4751299896    1.3609562045    1.2325444733
N        1.1756730293    1.4497179381    2.1639998927
6    
Image 7/11, Energy =  -169.0169844864 (+22.265 kcal/mol)
C       -0.1926891153   -1.1555025409   -0.9791062668
C       -0.7272094430   -0.1224374251   -0.6852303295
H       -1.2398775207    0.7637789524   -0.4924151452
H        0.5015120504   -1.9351128868   -0.9947665086
C        0.4734779169    1.2232372088    1.1119858552
N        1.1847861301    1.2260366859    2.0395323649
6    
Image 8/11, Energy =  -168.9966397880 (+35.032 kcal/mol)
C       -0.2309191534   -1.1087153756   -0.9740688987
C       -0.6259753060   -0.0163633910   -0.5522276473
H       -1.3127023337    0.7777202970   -0.5526221954
H        0.5652230780   -1.7947302347   -0.8283653404
C        0.4557036582    1.0158154692    0.9899502321
N        1.1486700804    1.1262732430    1.9173338233
6    
Image 9/11, Energy =  -169.0142073499 (+24.008 kcal/mol)
C       -0.2651779431   -1.0816688897   -0.9898885288
C       -0.5084643226    0.0873215012   -0.3882705893
H       -1.3111277400    0.7793709492   -0.5583854331
H        0.5952095846   -1.7098716149   -0.7402271262
C        0.4066361097    0.8309179296    0.8805789686
N        1.0829243217    1.0939301220    1.7961926786
6    
Image 10/11, Energy =  -169.0437609544 (+5.463 kcal/mol)
C       -0.2721093513   -1.0384613434   -0.9953339881
C       -0.4664498990    0.1336943575   -0.3047184047
H       -1.3026915424    0.8069996864   -0.5503883163
H        0.6404231461   -1.5232274468   -0.5526624607
C        0.3524169885    0.6272448767    0.7650856657
N        1.0484106581    0.9937498643    1.6380174988
