6    
Image 0/11, Energy =  -169.0522692293 (+0.326 kcal/mol)
C       -0.3689809232   -1.4576547332   -1.3858823910
C       -0.1536196575   -0.5941379364   -0.5627748996
H        0.0498937432    0.2058682499    0.1931202386
H       -0.5557149982   -2.2230003307   -2.1042277546
C        0.4068909404    1.6172446315    1.5286738868
N        0.6215308952    2.4516801189    2.3310909145
6    
Image 1/11, Energy =  -169.0527887111 (+0.000 kcal/mol)
C       -0.3464415951   -1.4546637371   -1.3606269266
C       -0.2718367864   -0.5245546343   -0.6061273009
H       -0.1453683616    0.2904938750    0.1005585418
H       -0.3906412087   -2.2753873576   -2.0122218844
C        0.3774362690    1.6405095607    1.5107181517
N        0.7768516795    2.3236023259    2.3676994269
6    
Image 2/11, Energy =  -169.0507180731 (+1.299 kcal/mol)
C       -0.3196863239   -1.4400535113   -1.3258640490
C       -0.3874069341   -0.4563641860   -0.6475374228
H       -0.3378947895    0.3930946657    0.0172328639
H       -0.2239271057   -2.3107157221   -1.9002942108
C        0.3547512149    1.6502950323    1.4840699743
N        0.9141639820    2.1637438093    2.3723928355
6    
Image 3/11, Energy =  -169.0474574044 (+3.345 kcal/mol)
C       -0.2886281132   -1.4103888708   -1.2764203474
C       -0.4961890222   -0.3904028384   -0.6855361664
H       -0.5314419150    0.4917032012   -0.0742917507
H       -0.0581937980   -2.3103992186   -1.7586349062
C        0.3490527452    1.6402708671    1.4512598213
N        1.0254001448    1.9792168828    2.3436233399
6    
Image 4/11, Energy =  -169.0430478025 (+6.113 kcal/mol)
C       -0.2560655202   -1.3639856215   -1.2103299779
C       -0.5944937125   -0.3262887585   -0.7216804924
H       -0.7261465321    0.5818975267   -0.1773251876
H        0.1038048146   -2.2712465968   -1.5879158194
C        0.3616089660    1.5984295566    1.4087850369
N        1.1112919732    1.7811939784    2.2884664023
6    
Image 5/11, Energy =  -169.0372385234 (+9.758 kcal/mol)
C       -0.2255915441   -1.2986066235   -1.1316494162
C       -0.6787169984   -0.2620314629   -0.7497168824
H       -0.9232404891    0.6614281920   -0.2925696274
H        0.2611473091   -2.1883597375   -1.3870417792
C        0.3904425400    1.5087389526    1.3472517397
N        1.1759591396    1.5788307728    2.2137259522
6    
Image 6/11, Energy =  -169.0287402670 (+15.091 kcal/mol)
C       -0.2055287080   -1.2178821454   -1.0529626265
C       -0.7327149641   -0.1899233581   -0.7516708600
H       -1.1135116010    0.7283819400   -0.4144290648
H        0.4076670433   -2.0570770119   -1.1564723594
C        0.4270888591    1.3547090900    1.2558491344
N        1.2169993482    1.3817915603    2.1196856957
6    
Image 7/11, Energy =  -169.0123195777 (+25.395 kcal/mol)
C       -0.2157069239   -1.1471430825   -1.0078929726
C       -0.7124340732   -0.1004145976   -0.6828012318
H       -1.2624727003    0.7693619056   -0.5193341914
H        0.5201552219   -1.8879585901   -0.9306120382
C        0.4530523634    1.1343063436    1.1311722608
N        1.2174060899    1.2318481315    2.0094680531
6    
Image 8/11, Energy =  -168.9961668890 (+35.531 kcal/mol)
C       -0.2539520421   -1.1081597103   -1.0112552573
C       -0.6124551227    0.0039690564   -0.5335632968
H       -1.3314884986    0.7756069806   -0.5792322132
H        0.5775143571   -1.7367857674   -0.7702550962
C        0.4542629902    0.9107623231    1.0023724715
N        1.1661182869    1.1546072547    1.8919332457
6    
Image 9/11, Energy =  -169.0201896988 (+20.456 kcal/mol)
C       -0.2721667998   -1.0746367771   -1.0073877265
C       -0.5026762522    0.0910278348   -0.3775655574
H       -1.3152641354    0.7746645884   -0.5704726852
H        0.5970462175   -1.6726304982   -0.7046981409
C        0.4034950549    0.7756818387    0.8854255416
N        1.0895659117    1.1058931196    1.7746984597
6    
Image 10/11, Energy =  -169.0437609544 (+5.665 kcal/mol)
C       -0.2721093513   -1.0384613434   -0.9953339881
C       -0.4664498990    0.1336943575   -0.3047184047
H       -1.3026915424    0.8069996864   -0.5503883163
H        0.6404231461   -1.5232274468   -0.5526624607
C        0.3524169885    0.6272448767    0.7650856657
N        1.0484106581    0.9937498643    1.6380174988
