6    
Image 0/11, Energy =  -169.0522692293 (+0.348 kcal/mol)
C       -0.3689809232   -1.4576547332   -1.3858823910
C       -0.1536196575   -0.5941379364   -0.5627748996
H        0.0498937432    0.2058682499    0.1931202386
H       -0.5557149982   -2.2230003307   -2.1042277546
C        0.4068909404    1.6172446315    1.5286738868
N        0.6215308952    2.4516801189    2.3310909145
6    
Image 1/11, Energy =  -169.0528245950 (+0.000 kcal/mol)
C       -0.3464675559   -1.4524534020   -1.3646626062
C       -0.2754929779   -0.5280109173   -0.6050231176
H       -0.1432788638    0.2861912729    0.1026132448
H       -0.3915541122   -2.2752134740   -2.0152380873
C        0.3851857324    1.6342023247    1.5161550788
N        0.7716077853    2.3352842405    2.3661555175
6    
Image 2/11, Energy =  -169.0507491673 (+1.302 kcal/mol)
C       -0.3213477334   -1.4399911305   -1.3319746140
C       -0.3941441613   -0.4600884434   -0.6464258146
H       -0.3345861525    0.3853743172    0.0225181156
H       -0.2242928120   -2.3096231982   -1.9075175061
C        0.3688751161    1.6386433122    1.4907332650
N        0.9054957547    2.1856851735    2.3726665524
6    
Image 3/11, Energy =  -169.0475018323 (+3.340 kcal/mol)
C       -0.2933759512   -1.4120401665   -1.2817646036
C       -0.5024154191   -0.3949516045   -0.6896000298
H       -0.5262941473    0.4809785547   -0.0671383856
H       -0.0593023508   -2.3098900434   -1.7687322357
C        0.3649664953    1.6280462201    1.4568513579
N        1.0164213803    2.0078571033    2.3503838719
6    
Image 4/11, Energy =  -169.0431407010 (+6.077 kcal/mol)
C       -0.2605219438   -1.3679579104   -1.2169496537
C       -0.6002425748   -0.3318497832   -0.7251580315
H       -0.7206076588    0.5701416040   -0.1692820565
H        0.1011462685   -2.2717072062   -1.5997626244
C        0.3767841711    1.5909385208    1.4104198101
N        1.1034417382    1.8104348349    2.3007325519
6    
Image 5/11, Energy =  -169.0375775755 (+9.568 kcal/mol)
C       -0.2266758802   -1.3044619616   -1.1382883883
C       -0.6826253393   -0.2691752318   -0.7516119070
H       -0.9118224711    0.6506063948   -0.2806402173
H        0.2531104887   -2.1941635179   -1.4035042660
C        0.4019030990    1.5120956288    1.3459568800
N        1.1661101235    1.6050987066    2.2280878739
6    
Image 6/11, Energy =  -169.0295807587 (+14.586 kcal/mol)
C       -0.2037532956   -1.2237929914   -1.0554325638
C       -0.7369054399   -0.1994320954   -0.7555077553
H       -1.0991174121    0.7199698933   -0.4005811349
H        0.3974462307   -2.0684687156   -1.1779897519
C        0.4357571169    1.3684646590    1.2547660686
N        1.2065727954    1.4032592786    2.1347450746
6    
Image 7/11, Energy =  -169.0132789554 (+24.815 kcal/mol)
C       -0.2144254452   -1.1484471143   -1.0060237614
C       -0.7205955589   -0.1058814827   -0.6901101901
H       -1.2627799938    0.7663114963   -0.5175910090
H        0.5193904257   -1.8897486592   -0.9339714876
C        0.4643206973    1.1461935062    1.1278629065
N        1.2140898650    1.2315722906    2.0198334473
6    
Image 8/11, Energy =  -168.9961716244 (+35.550 kcal/mol)
C       -0.2581064271   -1.1068028900   -1.0103794602
C       -0.6116674310    0.0114603491   -0.5313423718
H       -1.3435719215    0.7707491150   -0.5896646273
H        0.5841696074   -1.7128170148   -0.7462564267
C        0.4616112205    0.9047104312    0.9888827998
N        1.1675649246    1.1327001122    1.8887599430
6    
Image 9/11, Energy =  -169.0183369825 (+21.641 kcal/mol)
C       -0.2723800098   -1.0767631736   -1.0049757262
C       -0.5145427950    0.0897971332   -0.3915810726
H       -1.3269087367    0.7714515598   -0.5826430449
H        0.6029919687   -1.6484918389   -0.6822464587
C        0.4101707994    0.7789670642    0.8840617323
N        1.1006687458    1.0850393374    1.7773844402
6    
Image 10/11, Energy =  -169.0437609544 (+5.688 kcal/mol)
C       -0.2721093513   -1.0384613434   -0.9953339881
C       -0.4664498990    0.1336943575   -0.3047184047
H       -1.3026915424    0.8069996864   -0.5503883163
H        0.6404231461   -1.5232274468   -0.5526624607
C        0.3524169885    0.6272448767    0.7650856657
N        1.0484106581    0.9937498643    1.6380174988
