6    
Image 0/11, Energy =  -169.0522692293 (+0.363 kcal/mol)
C       -0.3689809232   -1.4576547332   -1.3858823910
C       -0.1536196575   -0.5941379364   -0.5627748996
H        0.0498937432    0.2058682499    0.1931202386
H       -0.5557149982   -2.2230003307   -2.1042277546
C        0.4068909404    1.6172446315    1.5286738868
N        0.6215308952    2.4516801189    2.3310909145
6    
Image 1/11, Energy =  -169.0528481899 (+0.000 kcal/mol)
C       -0.3431491015   -1.4584664319   -1.3578981568
C       -0.2655225050   -0.5233521413   -0.6114719385
H       -0.1473868198    0.2998317706    0.0860775683
H       -0.3940192728   -2.2842126530   -2.0042466384
C        0.3477058503    1.6663709513    1.5090077331
N        0.8023718386    2.2998285663    2.3785315926
6    
Image 2/11, Energy =  -169.0506372511 (+1.387 kcal/mol)
C       -0.3118734795   -1.4412620157   -1.3157838931
C       -0.3777249634   -0.4446205076   -0.6542286255
H       -0.3440897331    0.4179426917   -0.0051359647
H       -0.2242524777   -2.3229612427   -1.8768317186
C        0.3018901921    1.6941902155    1.4856334421
N        0.9560504501    2.0967107747    2.3663466951
6    
Image 3/11, Energy =  -169.0472056391 (+3.541 kcal/mol)
C       -0.2768923411   -1.4044681553   -1.2572771037
C       -0.4877648460   -0.3678209685   -0.6964180678
H       -0.5480467453    0.5271751433   -0.1059490870
H       -0.0492338456   -2.3191443098   -1.7163969404
C        0.2844889609    1.6926938529    1.4675105835
N        1.0774488207    1.8715644209    2.3085304557
6    
Image 4/11, Energy =  -169.0426850906 (+6.377 kcal/mol)
C       -0.2396050728   -1.3499348105   -1.1852969229
C       -0.5917787143   -0.2973551084   -0.7390551667
H       -0.7591355774    0.6214824419   -0.2246177494
H        0.1227614232   -2.2720670940   -1.5272190961
C        0.2971129358    1.6499621263    1.4484513945
N        1.1706448786    1.6479124471    2.2277373035
6    
Image 5/11, Energy =  -169.0371360549 (+9.860 kcal/mol)
C       -0.2045562903   -1.2777610644   -1.1021794514
C       -0.6841671761   -0.2333369232   -0.7747877973
H       -0.9691296851    0.6966608136   -0.3562392247
H        0.2841959141   -2.1794012255   -1.3163530815
C        0.3349151892    1.5478511921    1.4058257129
N        1.2387420327    1.4459871687    2.1437338221
6    
Image 6/11, Energy =  -169.0294022630 (+14.713 kcal/mol)
C       -0.1847899796   -1.1933229389   -1.0213235726
C       -0.7482181579   -0.1682987919   -0.7803739523
H       -1.1511749103    0.7537851734   -0.4731248512
H        0.4279970377   -2.0393692355   -1.0910415720
C        0.3830176334    1.3689894538    1.3049967132
N        1.2731682925    1.2782163617    2.0608672970
6    
Image 7/11, Energy =  -169.0135257367 (+24.675 kcal/mol)
C       -0.2012058273   -1.1296807423   -0.9883909529
C       -0.7293454102   -0.0879177726   -0.7064320441
H       -1.2797416145    0.7878311871   -0.5619677228
H        0.5279237680   -1.8755090995   -0.8860133260
C        0.4234826750    1.1251862717    1.1637905785
N        1.2588862689    1.1800899889    1.9790135036
6    
Image 8/11, Energy =  -168.9961774007 (+35.561 kcal/mol)
C       -0.2504077269   -1.1026246317   -1.0116465776
C       -0.6169741653    0.0073778973   -0.5403119470
H       -1.3248939833    0.7883303708   -0.6013570476
H        0.5686218692   -1.7399189019   -0.7533989218
C        0.4404996490    0.9005071392    1.0207446642
N        1.1831542250    1.1463279963    1.8859699147
6    
Image 9/11, Energy =  -169.0167556649 (+22.648 kcal/mol)
C       -0.2705570567   -1.0735665553   -1.0106195260
C       -0.5088423005    0.0878771750   -0.3873241339
H       -1.3085981930    0.7818401012   -0.5896811652
H        0.5834271745   -1.6879069023   -0.7048362646
C        0.4009583274    0.7806829408    0.9089297543
N        1.1036119258    1.1110731202    1.7835314393
6    
Image 10/11, Energy =  -169.0437609544 (+5.702 kcal/mol)
C       -0.2721093513   -1.0384613434   -0.9953339881
C       -0.4664498990    0.1336943575   -0.3047184047
H       -1.3026915424    0.8069996864   -0.5503883163
H        0.6404231461   -1.5232274468   -0.5526624607
C        0.3524169885    0.6272448767    0.7650856657
N        1.0484106581    0.9937498643    1.6380174988
