6    
Image 0/11, Energy =  -169.0522692293 (+0.000 kcal/mol)
C       -0.3689809232   -1.4576547332   -1.3858823910
C       -0.1536196575   -0.5941379364   -0.5627748996
H        0.0498937432    0.2058682499    0.1931202386
H       -0.5557149982   -2.2230003307   -2.1042277546
C        0.4068909404    1.6172446315    1.5286738868
N        0.6215308952    2.4516801189    2.3310909145
6    
Image 1/11, Energy =  -169.0520698593 (+0.125 kcal/mol)
C       -0.3557600828   -1.4502549643   -1.3570431269
C       -0.2671891371   -0.5165634639   -0.6144187039
H       -0.1379095803    0.2697407925    0.1216079172
H       -0.4016903141   -2.2623964272   -2.0276111376
C        0.4445793857    1.5744556034    1.5451718539
N        0.7179697397    2.3850184454    2.3322931922
6    
Image 2/11, Energy =  -169.0490949629 (+1.992 kcal/mol)
C       -0.3378561113   -1.4367464747   -1.3280133502
C       -0.3848160596   -0.4503972768   -0.6509409402
H       -0.3198997211    0.3544897173    0.0608584468
H       -0.2429834566   -2.2854567804   -1.9380074415
C        0.4744020033    1.5175678605    1.5303052539
N        0.8111533592    2.3005429579    2.3257980175
6    
Image 3/11, Energy =  -169.0450926934 (+4.503 kcal/mol)
C       -0.3003320768   -1.4077244859   -1.2793810405
C       -0.5019966717   -0.3936972832   -0.6819669523
H       -0.5163564929    0.4564509395   -0.0367384766
H       -0.0823406740   -2.2854453119   -1.8097959941
C        0.4850719003    1.4659193445    1.4894200738
N        0.9159540109    2.1644967952    2.3184623772
6    
Image 4/11, Energy =  -169.0402470525 (+7.544 kcal/mol)
C       -0.2512517030   -1.3627638188   -1.2137068993
C       -0.6117284953   -0.3336455581   -0.7175727845
H       -0.7293891532    0.5462111500   -0.1434978613
H        0.0787273930   -2.2573344489   -1.6480213690
C        0.4923476290    1.4301752110    1.4219365973
N        1.0212943389    1.9773574610    2.3008623090
6    
Image 5/11, Energy =  -169.0350176352 (+10.826 kcal/mol)
C       -0.2114087755   -1.2958394846   -1.1275806135
C       -0.6895301849   -0.2796353533   -0.7407761536
H       -0.9346834073    0.6386743193   -0.2657574171
H        0.2350363253   -2.1936533356   -1.4527143192
C        0.4874872415    1.3984251859    1.3318613269
N        1.1130988390    1.7320286713    2.2549671633
6    
Image 6/11, Energy =  -169.0288954863 (+14.667 kcal/mol)
C       -0.1853692600   -1.2249056397   -1.0368258646
C       -0.7382339473   -0.2129794034   -0.7287225998
H       -1.1117064426    0.7150584680   -0.3919408013
H        0.3814414116   -2.0865941480   -1.2379138298
C        0.4850292003    1.3425938857    1.2291069506
N        1.1688390409    1.4668268342    2.1662961260
6    
Image 7/11, Energy =  -169.0168894890 (+22.201 kcal/mol)
C       -0.1872529833   -1.1570937947   -0.9659992088
C       -0.7311066828   -0.1220331104   -0.6735952073
H       -1.2446512043    0.7691908955   -0.4972931388
H        0.5059947196   -1.9398026553   -1.0081305287
C        0.4777010359    1.2292370107    1.1067022853
N        1.1793151182    1.2205016646    2.0383157811
6    
Image 8/11, Energy =  -168.9964454977 (+35.030 kcal/mol)
C       -0.2305977126   -1.1077973474   -0.9617005907
C       -0.6280442087   -0.0163594020   -0.5446000537
H       -1.3132446501    0.7848630875   -0.5634473389
H        0.5724752187   -1.7947604398   -0.8249591281
C        0.4514753642    1.0377199994    0.9808468396
N        1.1479360087    1.0963340904    1.9138602422
6    
Image 9/11, Energy =  -169.0178229640 (+21.615 kcal/mol)
C       -0.2653709823   -1.0729978778   -0.9804126730
C       -0.4938167567    0.0964303492   -0.3676213387
H       -1.3054586657    0.7626549516   -0.5609366085
H        0.5869497796   -1.6984912558   -0.7436608151
C        0.4024008646    0.8316903153    0.8665412729
N        1.0752957790    1.0807135254    1.7860901454
6    
Image 10/11, Energy =  -169.0437609544 (+5.339 kcal/mol)
C       -0.2721093513   -1.0384613434   -0.9953339881
C       -0.4664498990    0.1336943575   -0.3047184047
H       -1.3026915424    0.8069996864   -0.5503883163
H        0.6404231461   -1.5232274468   -0.5526624607
C        0.3524169885    0.6272448767    0.7650856657
N        1.0484106581    0.9937498643    1.6380174988
