6    
Image 0/11, Energy =  -169.0522692293 (+0.066 kcal/mol)
C       -0.3689809232   -1.4576547332   -1.3858823910
C       -0.1536196575   -0.5941379364   -0.5627748996
H        0.0498937432    0.2058682499    0.1931202386
H       -0.5557149982   -2.2230003307   -2.1042277546
C        0.4068909404    1.6172446315    1.5286738868
N        0.6215308952    2.4516801189    2.3310909145
6    
Image 1/11, Energy =  -169.0523740892 (+0.000 kcal/mol)
C       -0.3511582751   -1.4516334943   -1.3684043970
C       -0.2747431177   -0.5220179321   -0.6077944024
H       -0.1351250094    0.2743675539    0.1230811042
H       -0.4017738434   -2.2649207094   -2.0263128623
C        0.4385014576    1.5779411791    1.5417803692
N        0.7242987798    2.3862633848    2.3376501840
6    
Image 2/11, Energy =  -169.0495097725 (+1.797 kcal/mol)
C       -0.3308324544   -1.4358172245   -1.3355602072
C       -0.3928299957   -0.4551838494   -0.6475479437
H       -0.3210233701    0.3622294196    0.0575249901
H       -0.2408800388   -2.2906857167   -1.9321610521
C        0.4606918190    1.5292694321    1.5220584957
N        0.8248740607    2.2901879290    2.3356857086
6    
Image 3/11, Energy =  -169.0455440266 (+4.286 kcal/mol)
C       -0.2976356790   -1.4112188059   -1.2830501106
C       -0.5073684333   -0.3930410673   -0.6888670680
H       -0.5158848411    0.4606374894   -0.0358991017
H       -0.0792637714   -2.2902622721   -1.8033361359
C        0.4683719447    1.4845918114    1.4812511486
N        0.9317807664    2.1492928477    2.3299012623
6    
Image 4/11, Energy =  -169.0408324995 (+7.242 kcal/mol)
C       -0.2542783859   -1.3677020788   -1.2181677445
C       -0.6144854076   -0.3372018891   -0.7224031272
H       -0.7281806684    0.5527449166   -0.1438543127
H        0.0839624367   -2.2580618355   -1.6419402685
C        0.4783405534    1.4459129316    1.4183380907
N        1.0346414677    1.9643079443    2.3080273626
6    
Image 5/11, Energy =  -169.0357152707 (+10.454 kcal/mol)
C       -0.2137836287   -1.3042449953   -1.1331373746
C       -0.6967146325   -0.2790546943   -0.7431275612
H       -0.9279310349    0.6405191541   -0.2635166485
H        0.2392725924   -2.1947494371   -1.4511031226
C        0.4778419503    1.4123698530    1.3310395571
N        1.1213147897    1.7251601181    2.2598451320
6    
Image 6/11, Energy =  -169.0293423962 (+14.453 kcal/mol)
C       -0.1881738414   -1.2273604486   -1.0377393628
C       -0.7447391328   -0.2127995558   -0.7396717178
H       -1.1065411410    0.7191594069   -0.3873817340
H        0.3870748392   -2.0882434347   -1.2308713016
C        0.4778921786    1.3542446659    1.2285164239
N        1.1744870857    1.4549993541    2.1671476811
6    
Image 7/11, Energy =  -169.0169004923 (+22.260 kcal/mol)
C       -0.1927422817   -1.1512726341   -0.9732997087
C       -0.7288651177   -0.1273003068   -0.6825778748
H       -1.2452528035    0.7739509340   -0.4938800302
H        0.5089674207   -1.9410769899   -0.9967831642
C        0.4744007404    1.2263691065    1.1078112480
N        1.1834920578    1.2193298964    2.0387295084
6    
Image 8/11, Energy =  -168.9965475642 (+35.032 kcal/mol)
C       -0.2288436708   -1.1138289302   -0.9747190884
C       -0.6291175134   -0.0125874706   -0.5485655157
H       -1.3119938033    0.7807534678   -0.5534589892
H        0.5674544767   -1.8008937187   -0.8302447456
C        0.4524050510    1.0267442518    0.9860086747
N        1.1500954831    1.1198123906    1.9209796271
6    
Image 9/11, Energy =  -169.0152972243 (+23.266 kcal/mol)
C       -0.2683679032   -1.0767996836   -0.9901055188
C       -0.5005154327    0.0875065085   -0.3811004978
H       -1.3115337925    0.7749790602   -0.5574049215
H        0.5947788492   -1.7107401667   -0.7425371737
C        0.4051409791    0.8326788635    0.8768580160
N        1.0804973230    1.0923754175    1.7942900744
6    
Image 10/11, Energy =  -169.0437609544 (+5.405 kcal/mol)
C       -0.2721093513   -1.0384613434   -0.9953339881
C       -0.4664498990    0.1336943575   -0.3047184047
H       -1.3026915424    0.8069996864   -0.5503883163
H        0.6404231461   -1.5232274468   -0.5526624607
C        0.3524169885    0.6272448767    0.7650856657
N        1.0484106581    0.9937498643    1.6380174988
