6    
Image 0/11, Energy =  -169.0522692293 (+0.375 kcal/mol)
C       -0.3689809232   -1.4576547332   -1.3858823910
C       -0.1536196575   -0.5941379364   -0.5627748996
H        0.0498937432    0.2058682499    0.1931202386
H       -0.5557149982   -2.2230003307   -2.1042277546
C        0.4068909404    1.6172446315    1.5286738868
N        0.6215308952    2.4516801189    2.3310909145
6    
Image 1/11, Energy =  -169.0528661502 (+0.000 kcal/mol)
C       -0.3434198047   -1.4587212710   -1.3583652617
C       -0.2651772475   -0.5241814742   -0.6113049955
H       -0.1467020277    0.2985438474    0.0866627795
H       -0.3947325831   -2.2838493985   -2.0054942572
C        0.3484789484    1.6665660946    1.5096959731
N        0.8015526992    2.3016422623    2.3788059209
6    
Image 2/11, Energy =  -169.0506928559 (+1.364 kcal/mol)
C       -0.3124746698   -1.4420053338   -1.3169235348
C       -0.3765241133   -0.4465877749   -0.6533651371
H       -0.3416931079    0.4152092884   -0.0033122034
H       -0.2264301587   -2.3225288410   -1.8800805091
C        0.3029839037    1.6950227337    1.4861308532
N        0.9541381345    2.1008898554    2.3675504622
6    
Image 3/11, Energy =  -169.0472432190 (+3.528 kcal/mol)
C       -0.2772724893   -1.4049466266   -1.2578485210
C       -0.4869869887   -0.3687061353   -0.6957358854
H       -0.5462303918    0.5259803486   -0.1045567253
H       -0.0505210446   -2.3192109880   -1.7182330928
C        0.2847399568    1.6932358058    1.4671447213
N        1.0762709618    1.8736475888    2.3092293502
6    
Image 4/11, Energy =  -169.0427906754 (+6.322 kcal/mol)
C       -0.2404905202   -1.3513526597   -1.1867083196
C       -0.5901373365   -0.2991820695   -0.7373880613
H       -0.7543260468    0.6191100173   -0.2203736681
H        0.1198499006   -2.2730912123   -1.5318852851
C        0.2972714454    1.6518259556    1.4467204675
N        1.1678324283    1.6526899616    2.2296346322
6    
Image 5/11, Energy =  -169.0372149372 (+9.821 kcal/mol)
C       -0.2052423907   -1.2789261489   -1.1037153762
C       -0.6831581279   -0.2344037278   -0.7739737109
H       -0.9655972122    0.6954157836   -0.3529377935
H        0.2823682343   -2.1808252382   -1.3194552048
C        0.3342884129    1.5493052734    1.4053735016
N        1.2373410577    1.4494340384    2.1447085369
6    
Image 6/11, Energy =  -169.0294995042 (+14.663 kcal/mol)
C       -0.1851625927   -1.1946988712   -1.0225414073
C       -0.7474223508   -0.1694529309   -0.7797577421
H       -1.1484322314    0.7529014899   -0.4705104171
H        0.4262470648   -2.0415327271   -1.0946692295
C        0.3828176309    1.3712280786    1.3051623443
N        1.2719524043    1.2815549819    2.0623165001
6    
Image 7/11, Energy =  -169.0135947626 (+24.643 kcal/mol)
C       -0.2012323399   -1.1300110129   -0.9886956506
C       -0.7293729172   -0.0883274744   -0.7067095325
H       -1.2791910026    0.7876568759   -0.5614297830
H        0.5275202187   -1.8762695166   -0.8869347944
C        0.4234175190    1.1260866145    1.1643079350
N        1.2588583836    1.1808643552    1.9794618592
6    
Image 8/11, Energy =  -168.9961774007 (+35.573 kcal/mol)
C       -0.2504077269   -1.1026246317   -1.0116465776
C       -0.6169741653    0.0073778973   -0.5403119470
H       -1.3248939833    0.7883303708   -0.6013570476
H        0.5686218692   -1.7399189019   -0.7533989218
C        0.4404996490    0.9005071392    1.0207446642
N        1.1831542250    1.1463279963    1.8859699147
6    
Image 9/11, Energy =  -169.0167556649 (+22.660 kcal/mol)
C       -0.2705570567   -1.0735665553   -1.0106195260
C       -0.5088423005    0.0878771750   -0.3873241339
H       -1.3085981930    0.7818401012   -0.5896811652
H        0.5834271745   -1.6879069023   -0.7048362646
C        0.4009583274    0.7806829408    0.9089297543
N        1.1036119258    1.1110731202    1.7835314393
6    
Image 10/11, Energy =  -169.0437609544 (+5.714 kcal/mol)
C       -0.2721093513   -1.0384613434   -0.9953339881
C       -0.4664498990    0.1336943575   -0.3047184047
H       -1.3026915424    0.8069996864   -0.5503883163
H        0.6404231461   -1.5232274468   -0.5526624607
C        0.3524169885    0.6272448767    0.7650856657
N        1.0484106581    0.9937498643    1.6380174988
