6    
Image 0/11, Energy =  -169.0522692293 (+0.249 kcal/mol)
C       -0.3689809232   -1.4576547332   -1.3858823910
C       -0.1536196575   -0.5941379364   -0.5627748996
H        0.0498937432    0.2058682499    0.1931202386
H       -0.5557149982   -2.2230003307   -2.1042277546
C        0.4068909404    1.6172446315    1.5286738868
N        0.6215308952    2.4516801189    2.3310909145
6    
Image 1/11, Energy =  -169.0526666393 (+0.000 kcal/mol)
C       -0.3425133446   -1.4529074306   -1.3555580426
C       -0.2704321561   -0.5194166804   -0.6066557980
H       -0.1479722294    0.3014917683    0.0948472949
H       -0.3886046778   -2.2778692699   -2.0021167202
C        0.3627349900    1.6465480558    1.5008108498
N        0.7867873850    2.3021535947    2.3686724360
6    
Image 2/11, Energy =  -169.0504201902 (+1.410 kcal/mol)
C       -0.3128079169   -1.4358631368   -1.3150437921
C       -0.3857594456   -0.4440402167   -0.6484675408
H       -0.3447631513    0.4131894016    0.0066485190
H       -0.2172453036   -2.3126798728   -1.8789875165
C        0.3302346188    1.6617664908    1.4720074248
N        0.9303411865    2.1176273833    2.3638429686
6    
Image 3/11, Energy =  -169.0469810880 (+3.568 kcal/mol)
C       -0.2795878178   -1.4016517274   -1.2600423786
C       -0.4962676431   -0.3726240033   -0.6888560165
H       -0.5440819526    0.5172407265   -0.0903585764
H       -0.0456491729   -2.3087917697   -1.7261814939
C        0.3205295122    1.6508416519    1.4432696056
N        1.0450570578    1.9149851800    2.3221688806
6    
Image 4/11, Energy =  -169.0423185161 (+6.494 kcal/mol)
C       -0.2450368864   -1.3498329865   -1.1901370514
C       -0.5979257228   -0.3054063462   -0.7271870337
H       -0.7469121029    0.6086180264   -0.1989818847
H        0.1224043073   -2.2624155505   -1.5459329091
C        0.3345356081    1.5983679598    1.4070737490
N        1.1329347925    1.7106690200    2.2551650878
6    
Image 5/11, Energy =  -169.0363458630 (+10.241 kcal/mol)
C       -0.2134040707   -1.2814201840   -1.1109283672
C       -0.6827035642   -0.2420960967   -0.7552905242
H       -0.9460349840    0.6837665166   -0.3157980688
H        0.2796964930   -2.1733534154   -1.3448601737
C        0.3657293735    1.4930323820    1.3512565177
N        1.1967167315    1.5200709257    2.1756205721
6    
Image 6/11, Energy =  -169.0279073042 (+15.537 kcal/mol)
C       -0.1955961679   -1.2038977234   -1.0387184871
C       -0.7332943987   -0.1764454997   -0.7543588680
H       -1.1274518158    0.7413832729   -0.4317144702
H        0.4173938205   -2.0450150809   -1.1309239651
C        0.4048817883    1.3285090636    1.2652115576
N        1.2340667382    1.3554661243    2.0905041446
6    
Image 7/11, Energy =  -169.0120423116 (+25.492 kcal/mol)
C       -0.2106498527   -1.1417832671   -1.0053543296
C       -0.7115288545   -0.0961019959   -0.6833025239
H       -1.2638086556    0.7739556114   -0.5260324218
H        0.5188554896   -1.8892724127   -0.9292541409
C        0.4399349494    1.1142234349    1.1449994847
N        1.2271968743    1.2389787871    1.9989438105
6    
Image 8/11, Energy =  -168.9962095799 (+35.427 kcal/mol)
C       -0.2521019788   -1.1071225882   -1.0124977123
C       -0.6147169085    0.0007661855   -0.5348184061
H       -1.3285273871    0.7771610506   -0.5801572646
H        0.5733091582   -1.7452323251   -0.7799517282
C        0.4535628949    0.9029219771    1.0129924518
N        1.1684741816    1.1715058664    1.8944325132
6    
Image 9/11, Energy =  -169.0185482367 (+21.410 kcal/mol)
C       -0.2719627220   -1.0757314906   -1.0098527896
C       -0.5069208529    0.0856170831   -0.3812100868
H       -1.3135117808    0.7752544816   -0.5708756611
H        0.5941011692   -1.6770998350   -0.7120047022
C        0.4053045038    0.7756590956    0.8955908692
N        1.0929896319    1.1163007495    1.7783522509
6    
Image 10/11, Energy =  -169.0437609544 (+5.588 kcal/mol)
C       -0.2721093513   -1.0384613434   -0.9953339881
C       -0.4664498990    0.1336943575   -0.3047184047
H       -1.3026915424    0.8069996864   -0.5503883163
H        0.6404231461   -1.5232274468   -0.5526624607
C        0.3524169885    0.6272448767    0.7650856657
N        1.0484106581    0.9937498643    1.6380174988
