6    
Image 0/11, Energy =  -169.0522692293 (+0.275 kcal/mol)
C       -0.3689809232   -1.4576547332   -1.3858823910
C       -0.1536196575   -0.5941379364   -0.5627748996
H        0.0498937432    0.2058682499    0.1931202386
H       -0.5557149982   -2.2230003307   -2.1042277546
C        0.4068909404    1.6172446315    1.5286738868
N        0.6215308952    2.4516801189    2.3310909145
6    
Image 1/11, Energy =  -169.0527075835 (+0.000 kcal/mol)
C       -0.3521038645   -1.4507845213   -1.3651574177
C       -0.2759785996   -0.5269346432   -0.6054869937
H       -0.1380640171    0.2776936050    0.1122381758
H       -0.3931500418   -2.2682724437   -2.0210734932
C        0.4098261196    1.6077903948    1.5265778920
N        0.7494704245    2.3605076138    2.3529017927
6    
Image 2/11, Energy =  -169.0503894509 (+1.455 kcal/mol)
C       -0.3287967902   -1.4366802562   -1.3374244871
C       -0.3961211720   -0.4609533830   -0.6470287614
H       -0.3274015669    0.3721155706    0.0361558179
H       -0.2294502791   -2.3013800842   -1.9183184675
C        0.4111803303    1.5866053504    1.5064625429
N        0.8705894749    2.2402928164    2.3601533560
6    
Image 3/11, Energy =  -169.0468455046 (+3.679 kcal/mol)
C       -0.2996235972   -1.4092245310   -1.2935385381
C       -0.5077428296   -0.4000453469   -0.6847838588
H       -0.5234184754    0.4668651354   -0.0530415454
H       -0.0653450981   -2.3015123140   -1.7849746967
C        0.4162851170    1.5586385904    1.4676293125
N        0.9798449157    2.0852784616    2.3487093095
6    
Image 4/11, Energy =  -169.0424023352 (+6.467 kcal/mol)
C       -0.2678122113   -1.3676119807   -1.2280223189
C       -0.6041945290   -0.3399088534   -0.7206167069
H       -0.7205543509    0.5578474025   -0.1565916616
H        0.0951030321   -2.2664296582   -1.6205596733
C        0.4237921126    1.5256123594    1.4112596913
N        1.0736659633    1.8904907505    2.3145306570
6    
Image 5/11, Energy =  -169.0370140629 (+9.848 kcal/mol)
C       -0.2345028549   -1.3085455153   -1.1468815254
C       -0.6829957557   -0.2771789386   -0.7450258791
H       -0.9158186034    0.6413154290   -0.2713362466
H        0.2499062680   -2.1934018683   -1.4243387782
C        0.4374490528    1.4741889510    1.3368245084
N        1.1459618913    1.6636219597    2.2507578907
6    
Image 6/11, Energy =  -169.0298221174 (+14.361 kcal/mol)
C       -0.2060674090   -1.2328628548   -1.0615342124
C       -0.7316470619   -0.2064095127   -0.7462944484
H       -1.0951547650    0.7120040006   -0.3865540722
H        0.3894279935   -2.0803504003   -1.2032292203
C        0.4554384654    1.3763075930    1.2428947574
N        1.1880027605    1.4313111566    2.1547171792
6    
Image 7/11, Energy =  -169.0159296119 (+23.079 kcal/mol)
C       -0.2048977808   -1.1580940643   -0.9988677333
C       -0.7186335914   -0.1176155398   -0.6920105830
H       -1.2435339622    0.7613703397   -0.4899062614
H        0.5035258775   -1.9284367790   -0.9818293744
C        0.4695010387    1.1953673897    1.1244916363
N        1.1940384389    1.2474086857    2.0381222814
6    
Image 8/11, Energy =  -168.9959832151 (+35.595 kcal/mol)
C       -0.2446402017   -1.1056967124   -0.9863530213
C       -0.6210064381    0.0062638954   -0.5445377591
H       -1.3419048294    0.7783227091   -0.5758429233
H        0.5842596773   -1.7476933927   -0.7763712819
C        0.4647332183    0.9445194608    0.9816884427
N        1.1585585878    1.1242841181    1.9014164705
6    
Image 9/11, Energy =  -169.0137155268 (+24.468 kcal/mol)
C       -0.2691965858   -1.0817312404   -0.9974480323
C       -0.5150120095    0.0835689463   -0.4002804865
H       -1.3217719269    0.7736860411   -0.5674349890
H        0.5963096936   -1.6904795981   -0.7230988791
C        0.4171287377    0.8145874354    0.8906387069
N        1.0925421196    1.1003684587    1.7976236382
6    
Image 10/11, Energy =  -169.0437609544 (+5.614 kcal/mol)
C       -0.2721093513   -1.0384613434   -0.9953339881
C       -0.4664498990    0.1336943575   -0.3047184047
H       -1.3026915424    0.8069996864   -0.5503883163
H        0.6404231461   -1.5232274468   -0.5526624607
C        0.3524169885    0.6272448767    0.7650856657
N        1.0484106581    0.9937498643    1.6380174988
