6    
Image 0/11, Energy =  -169.0522692293 (+0.000 kcal/mol)
C       -0.3689809232   -1.4576547332   -1.3858823910
C       -0.1536196575   -0.5941379364   -0.5627748996
H        0.0498937432    0.2058682499    0.1931202386
H       -0.5557149982   -2.2230003307   -2.1042277546
C        0.4068909404    1.6172446315    1.5286738868
N        0.6215308952    2.4516801189    2.3310909145
6    
Image 1/11, Energy =  -169.0519705727 (+0.187 kcal/mol)
C       -0.3629149384   -1.4489304299   -1.3545520102
C       -0.2749178443   -0.5263393265   -0.5985074497
H       -0.1173401115    0.2818421428    0.1032890013
H       -0.3977238006   -2.2489306556   -2.0195356985
C        0.4433895898    1.5614982893    1.5406424299
N        0.7095071213    2.3808599822    2.3286637249
6    
Image 2/11, Energy =  -169.0484130792 (+2.420 kcal/mol)
C       -0.3381683116   -1.4326392394   -1.3318402015
C       -0.3935645632   -0.4696244888   -0.6291769431
H       -0.3036752030    0.3672465597    0.0369219735
H       -0.2481071849   -2.2726634513   -1.9387108577
C        0.4889274806    1.4849846201    1.5481039479
N        0.7945877743    2.3226959983    2.3147020858
6    
Image 3/11, Energy =  -169.0438545569 (+5.280 kcal/mol)
C       -0.3017369657   -1.3995153772   -1.2986493014
C       -0.4929951132   -0.4140379811   -0.6504923811
H       -0.5254427004    0.4552201486   -0.0306483228
H       -0.0894510698   -2.2742288497   -1.8222791432
C        0.5232659566    1.4235388255    1.5030728918
N        0.8863598823    2.2090232388    2.2989962604
6    
Image 4/11, Energy =  -169.0387219873 (+8.501 kcal/mol)
C       -0.2648263013   -1.3545511489   -1.2290951687
C       -0.5654962649   -0.3448378388   -0.6841736035
H       -0.7403761229    0.5537870056   -0.1450359596
H        0.0669136366   -2.2487162525   -1.6467600770
C        0.5052918927    1.4024405254    1.4153666337
N        0.9984931598    1.9918777269    2.2896981775
6    
Image 5/11, Energy =  -169.0325712876 (+12.361 kcal/mol)
C       -0.2303113438   -1.2982273595   -1.1434675221
C       -0.6320463436   -0.2665761229   -0.7027645535
H       -0.9595966945    0.6284436763   -0.2877604023
H        0.2266131504   -2.1727156973   -1.4376504281
C        0.4914682270    1.3717476174    1.3222032166
N        1.1038730058    1.7373278908    2.2494396876
6    
Image 6/11, Energy =  -169.0253814520 (+16.872 kcal/mol)
C       -0.2062216034   -1.2273685496   -1.0544300461
C       -0.6817625829   -0.2031239816   -0.6937901566
H       -1.1299605402    0.6794963829   -0.4059681983
H        0.3630678016   -2.0631509316   -1.2407184786
C        0.4898525337    1.3191786399    1.2238667960
N        1.1650243892    1.4949684466    2.1710400804
6    
Image 7/11, Energy =  -169.0138482366 (+24.110 kcal/mol)
C       -0.2039748754   -1.1567533521   -0.9595665255
C       -0.6895712522   -0.1267813328   -0.6482847647
H       -1.2416736436    0.7346694261   -0.5046408303
H        0.4826359368   -1.9268275987   -1.0409244461
C        0.4772185949    1.2291562717    1.1033770169
N        1.1753652477    1.2465365757    2.0500395472
6    
Image 8/11, Energy =  -168.9942038505 (+36.437 kcal/mol)
C       -0.2322401916   -1.0990407770   -0.9106952849
C       -0.6297800409   -0.0189406201   -0.5343488440
H       -1.3013192385    0.7801427360   -0.5846295122
H        0.5760780809   -1.7730095627   -0.8367973862
C        0.4402406827    1.0598415868    0.9615676857
N        1.1470207142    1.0510066437    1.9049033324
6    
Image 9/11, Energy =  -169.0213162880 (+19.423 kcal/mol)
C       -0.2710568550   -1.0739582758   -0.9390171242
C       -0.5029845608    0.1174875945   -0.3572809298
H       -1.3080993065    0.7863462046   -0.5973285668
H        0.6169003749   -1.6707356575   -0.7101242256
C        0.3861647436    0.8261968782    0.8356448273
N        1.0790756050    1.0146632578    1.7681060148
6    
Image 10/11, Energy =  -169.0437609544 (+5.339 kcal/mol)
C       -0.2721093513   -1.0384613434   -0.9953339881
C       -0.4664498990    0.1336943575   -0.3047184047
H       -1.3026915424    0.8069996864   -0.5503883163
H        0.6404231461   -1.5232274468   -0.5526624607
C        0.3524169885    0.6272448767    0.7650856657
N        1.0484106581    0.9937498643    1.6380174988
