6    
Image 0/11, Energy =  -169.0522692293 (+0.349 kcal/mol)
C       -0.3689809232   -1.4576547332   -1.3858823910
C       -0.1536196575   -0.5941379364   -0.5627748996
H        0.0498937432    0.2058682499    0.1931202386
H       -0.5557149982   -2.2230003307   -2.1042277546
C        0.4068909404    1.6172446315    1.5286738868
N        0.6215308952    2.4516801189    2.3310909145
6    
Image 1/11, Energy =  -169.0528255594 (+0.000 kcal/mol)
C       -0.3479663365   -1.4531177480   -1.3647465906
C       -0.2754600049   -0.5274482620   -0.6050608195
H       -0.1425497367    0.2855972443    0.1040464850
H       -0.3911259775   -2.2750297523   -2.0166878492
C        0.3877023908    1.6318453666    1.5173947700
N        0.7693997004    2.3381531878    2.3650540251
6    
Image 2/11, Energy =  -169.0507536097 (+1.300 kcal/mol)
C       -0.3246469084   -1.4405779160   -1.3332166825
C       -0.3942427369   -0.4601473998   -0.6477145817
H       -0.3341459726    0.3825043641    0.0252755911
H       -0.2233433776   -2.3092415737   -1.9101286322
C        0.3742475042    1.6336029192    1.4933317080
N        0.9021314886    2.1938596437    2.3724525974
6    
Image 3/11, Energy =  -169.0474984596 (+3.343 kcal/mol)
C       -0.2963140788   -1.4145091785   -1.2841069232
C       -0.5040284272   -0.3944101461   -0.6907319591
H       -0.5260918404    0.4776400594   -0.0636722182
H       -0.0583758424   -2.3096814108   -1.7728416694
C        0.3716328496    1.6214841283    1.4588920588
N        1.0131773474    2.0194766121    2.3524606806
6    
Image 4/11, Energy =  -169.0431502446 (+6.071 kcal/mol)
C       -0.2629639275   -1.3690909689   -1.2204017512
C       -0.6021955203   -0.3335511383   -0.7257521812
H       -0.7192087321    0.5675636074   -0.1657483808
H        0.1012552143   -2.2728822654   -1.6037775027
C        0.3828998678    1.5863967966    1.4105847492
N        1.1002131144    1.8215640152    2.3050950603
6    
Image 5/11, Energy =  -169.0376235910 (+9.539 kcal/mol)
C       -0.2287045011   -1.3050504429   -1.1417894801
C       -0.6829805455   -0.2717101028   -0.7520242418
H       -0.9097191774    0.6482857072   -0.2776654173
H        0.2521921116   -2.1957222583   -1.4058597535
C        0.4065728893    1.5129224970    1.3456168383
N        1.1626392477    1.6112746115    2.2317220416
6    
Image 6/11, Energy =  -169.0297671136 (+14.469 kcal/mol)
C       -0.2044659347   -1.2269168313   -1.0590952577
C       -0.7347212888   -0.2015193837   -0.7545893584
H       -1.0946816124    0.7165575764   -0.3950179160
H        0.3934273465   -2.0727488605   -1.1847923888
C        0.4381248274    1.3733844723    1.2543989732
N        1.2023166714    1.4112430384    2.1390958970
6    
Image 7/11, Energy =  -169.0137938577 (+24.493 kcal/mol)
C       -0.2133544224   -1.1504592776   -1.0061252177
C       -0.7207485124   -0.1089960710   -0.6917916739
H       -1.2588693519    0.7636322873   -0.5119437477
H        0.5155916584   -1.8964008287   -0.9438752858
C        0.4665541638    1.1529099166    1.1283882188
N        1.2108264534    1.2393140091    2.0253476359
6    
Image 8/11, Energy =  -168.9961661021 (+35.554 kcal/mol)
C       -0.2578360440   -1.1054011764   -1.0054732627
C       -0.6135178713    0.0160542644   -0.5321798067
H       -1.3512867258    0.7707176938   -0.5955487612
H        0.5881431167   -1.7040850468   -0.7375460028
C        0.4661374071    0.8983108856    0.9829124636
N        1.1683600923    1.1244034753    1.8878352312
6    
Image 9/11, Energy =  -169.0169464526 (+22.514 kcal/mol)
C       -0.2709236370   -1.0783969547   -1.0016535294
C       -0.5204395375    0.0904005787   -0.3985211438
H       -1.3349848811    0.7737571151   -0.5844355314
H        0.6066067265   -1.6496309370   -0.6822058489
C        0.4160167120    0.7802879166    0.8847040301
N        1.1037245854    1.0835823626    1.7821119282
6    
Image 10/11, Energy =  -169.0437609544 (+5.688 kcal/mol)
C       -0.2721093513   -1.0384613434   -0.9953339881
C       -0.4664498990    0.1336943575   -0.3047184047
H       -1.3026915424    0.8069996864   -0.5503883163
H        0.6404231461   -1.5232274468   -0.5526624607
C        0.3524169885    0.6272448767    0.7650856657
N        1.0484106581    0.9937498643    1.6380174988
