6    
Image 0/11, Energy =  -169.0522692293 (+0.220 kcal/mol)
C       -0.3689809232   -1.4576547332   -1.3858823910
C       -0.1536196575   -0.5941379364   -0.5627748996
H        0.0498937432    0.2058682499    0.1931202386
H       -0.5557149982   -2.2230003307   -2.1042277546
C        0.4068909404    1.6172446315    1.5286738868
N        0.6215308952    2.4516801189    2.3310909145
6    
Image 1/11, Energy =  -169.0526202935 (+0.000 kcal/mol)
C       -0.3420216500   -1.4522965693   -1.3542293216
C       -0.2702344706   -0.5174076485   -0.6072831395
H       -0.1494458105    0.3042568111    0.0939477271
H       -0.3873068646   -2.2784307492   -1.9993317866
C        0.3601618806    1.6464900446    1.4988516286
N        0.7888468816    2.2973881524    2.3680449240
6    
Image 2/11, Energy =  -169.0503242089 (+1.441 kcal/mol)
C       -0.3120308679   -1.4344353555   -1.3132577032
C       -0.3863187454   -0.4404340111   -0.6496731880
H       -0.3476350423    0.4173016026    0.0049067635
H       -0.2144719240   -2.3130793770   -1.8737211081
C        0.3273402412    1.6606352826    1.4703324259
N        0.9331163394    2.1100118952    2.3614128686
6    
Image 3/11, Energy =  -169.0468170939 (+3.642 kcal/mol)
C       -0.2783075876   -1.3991314672   -1.2570122934
C       -0.4976789172   -0.3680903733   -0.6906671107
H       -0.5487128144    0.5225137512   -0.0936326142
H       -0.0412683254   -2.3079306777   -1.7182962631
C        0.3172053090    1.6481535777    1.4419856399
N        1.0487623158    1.9044852239    2.3176226683
6    
Image 4/11, Energy =  -169.0421195561 (+6.589 kcal/mol)
C       -0.2434335924   -1.3467043361   -1.1868010142
C       -0.5995551407   -0.3013574488   -0.7287180245
H       -0.7517560179    0.6135547684   -0.2032988026
H        0.1270578568   -2.2600744186   -1.5373373517
C        0.3310975680    1.5942434291    1.4072954164
N        1.1365893318    1.7003381405    2.2488597345
6    
Image 5/11, Energy =  -169.0361819502 (+10.315 kcal/mol)
C       -0.2123266082   -1.2788282667   -1.1086116597
C       -0.6838910355   -0.2393849806   -0.7565264606
H       -0.9498890207    0.6870081997   -0.3199530686
H        0.2834092425   -2.1705542238   -1.3379967564
C        0.3624557557    1.4886137967    1.3530635947
N        1.2002416433    1.5131456045    2.1700243162
6    
Image 6/11, Energy =  -169.0278100161 (+15.569 kcal/mol)
C       -0.1956567397   -1.2025327010   -1.0382655924
C       -0.7336401409   -0.1747404069   -0.7556840878
H       -1.1300280848    0.7427652577   -0.4349800230
H        0.4195027537   -2.0426234765   -1.1258928046
C        0.4024790170    1.3256371860    1.2673688672
N        1.2373431532    1.3514942817    2.0874535473
6    
Image 7/11, Energy =  -169.0120238836 (+25.475 kcal/mol)
C       -0.2107236303   -1.1415534892   -1.0053969071
C       -0.7115812041   -0.0956760412   -0.6837810442
H       -1.2643598102    0.7741284596   -0.5267005140
H        0.5192880697   -1.8884701921   -0.9277726112
C        0.4394609441    1.1138597590    1.1454193568
N        1.2279155864    1.2377116572    1.9982315988
6    
Image 8/11, Energy =  -168.9962095799 (+35.398 kcal/mol)
C       -0.2521019788   -1.1071225882   -1.0124977123
C       -0.6147169085    0.0007661855   -0.5348184061
H       -1.3285273871    0.7771610506   -0.5801572646
H        0.5733091582   -1.7452323251   -0.7799517282
C        0.4535628949    0.9029219771    1.0129924518
N        1.1684741816    1.1715058664    1.8944325132
6    
Image 9/11, Energy =  -169.0185482367 (+21.381 kcal/mol)
C       -0.2719627220   -1.0757314906   -1.0098527896
C       -0.5069208529    0.0856170831   -0.3812100868
H       -1.3135117808    0.7752544816   -0.5708756611
H        0.5941011692   -1.6770998350   -0.7120047022
C        0.4053045038    0.7756590956    0.8955908692
N        1.0929896319    1.1163007495    1.7783522509
6    
Image 10/11, Energy =  -169.0437609544 (+5.559 kcal/mol)
C       -0.2721093513   -1.0384613434   -0.9953339881
C       -0.4664498990    0.1336943575   -0.3047184047
H       -1.3026915424    0.8069996864   -0.5503883163
H        0.6404231461   -1.5232274468   -0.5526624607
C        0.3524169885    0.6272448767    0.7650856657
N        1.0484106581    0.9937498643    1.6380174988
