6    
Image 0/11, Energy =  -169.0522692293 (+0.206 kcal/mol)
C       -0.3689809232   -1.4576547332   -1.3858823910
C       -0.1536196575   -0.5941379364   -0.5627748996
H        0.0498937432    0.2058682499    0.1931202386
H       -0.5557149982   -2.2230003307   -2.1042277546
C        0.4068909404    1.6172446315    1.5286738868
N        0.6215308952    2.4516801189    2.3310909145
6    
Image 1/11, Energy =  -169.0525981427 (+0.000 kcal/mol)
C       -0.3505037554   -1.4476147389   -1.3688586390
C       -0.2788399515   -0.5275466011   -0.6017256218
H       -0.1343449182    0.2745585381    0.1146283554
H       -0.3969218540   -2.2665060659   -2.0231328409
C        0.4233165845    1.5934154394    1.5340885108
N        0.7372938980    2.3736934278    2.3450002030
6    
Image 2/11, Energy =  -169.0500490002 (+1.600 kcal/mol)
C       -0.3262271074   -1.4328611050   -1.3396194097
C       -0.3996562379   -0.4614799374   -0.6426426463
H       -0.3220360499    0.3686560858    0.0415399377
H       -0.2354758956   -2.2976869781   -1.9232614575
C        0.4332444712    1.5596506777    1.5146639132
N        0.8501508369    2.2637212564    2.3493196507
6    
Image 3/11, Energy =  -169.0463434924 (+3.925 kcal/mol)
C       -0.2980291072   -1.4070555829   -1.2930400627
C       -0.5099254705   -0.3982507956   -0.6837989505
H       -0.5201611405    0.4629186666   -0.0460270756
H       -0.0712709036   -2.2982804178   -1.7923413541
C        0.4416780078    1.5241546590    1.4742277435
N        0.9577086208    2.1165134682    2.3409796939
6    
Image 4/11, Energy =  -169.0417744324 (+6.792 kcal/mol)
C       -0.2656771512   -1.3669719122   -1.2267603699
C       -0.6068675682   -0.3386601590   -0.7181325914
H       -0.7235853899    0.5539404057   -0.1526734069
H        0.0912890210   -2.2630633632   -1.6300940488
C        0.4490350062    1.4879985343    1.4144527468
N        1.0558060872    1.9267564990    2.3132076687
6    
Image 5/11, Energy =  -169.0365022512 (+10.100 kcal/mol)
C       -0.2310382847   -1.3078261735   -1.1433728852
C       -0.6859801169   -0.2791607070   -0.7417842765
H       -0.9199391476    0.6361973360   -0.2696773227
H        0.2456232577   -2.1901743873   -1.4363232909
C        0.4572339038    1.4460567419    1.3346634235
N        1.1341003759    1.6949072036    2.2564943165
6    
Image 6/11, Energy =  -169.0297139134 (+14.360 kcal/mol)
C       -0.2019154308   -1.2300865778   -1.0522519127
C       -0.7352312064   -0.2107979225   -0.7446941589
H       -1.0967739892    0.7086121133   -0.3873947753
H        0.3863610790   -2.0786657988   -1.2130398076
C        0.4663783416    1.3706877553    1.2365011310
N        1.1811812014    1.4402504087    2.1608795151
6    
Image 7/11, Energy =  -169.0166656725 (+22.548 kcal/mol)
C       -0.1986713074   -1.1562024694   -0.9890134091
C       -0.7215289731   -0.1217912489   -0.6903771760
H       -1.2388294536    0.7604479681   -0.4885909429
H        0.4996348758   -1.9332868026   -0.9901610636
C        0.4711676893    1.2136936927    1.1180285046
N        1.1882271929    1.2371388696    2.0401140605
6    
Image 8/11, Energy =  -168.9963292777 (+35.309 kcal/mol)
C       -0.2353851822   -1.1080363213   -0.9796414891
C       -0.6242564758   -0.0075201115   -0.5514364569
H       -1.3235263324    0.7777549064   -0.5584171243
H        0.5716140114   -1.7790536723   -0.8106882004
C        0.4587028646    0.9862690894    0.9870026577
N        1.1528511426    1.1305861620    1.9131805757
6    
Image 9/11, Energy =  -169.0130830842 (+24.796 kcal/mol)
C       -0.2647308787   -1.0811790178   -0.9914706912
C       -0.5123919017    0.0809428662   -0.3976320892
H       -1.3116386586    0.7769773459   -0.5598860111
H        0.5915403266   -1.7038493656   -0.7370806937
C        0.4107854871    0.8267904124    0.8872044468
N        1.0864356546    1.1003177672    1.7988649880
6    
Image 10/11, Energy =  -169.0437609544 (+5.545 kcal/mol)
C       -0.2721093513   -1.0384613434   -0.9953339881
C       -0.4664498990    0.1336943575   -0.3047184047
H       -1.3026915424    0.8069996864   -0.5503883163
H        0.6404231461   -1.5232274468   -0.5526624607
C        0.3524169885    0.6272448767    0.7650856657
N        1.0484106581    0.9937498643    1.6380174988
