6    
Image 0/11, Energy =  -169.0522692293 (+0.266 kcal/mol)
C       -0.3689809232   -1.4576547332   -1.3858823910
C       -0.1536196575   -0.5941379364   -0.5627748996
H        0.0498937432    0.2058682499    0.1931202386
H       -0.5557149982   -2.2230003307   -2.1042277546
C        0.4068909404    1.6172446315    1.5286738868
N        0.6215308952    2.4516801189    2.3310909145
6    
Image 1/11, Energy =  -169.0526926588 (+0.000 kcal/mol)
C       -0.3429493661   -1.4533226279   -1.3563507902
C       -0.2705859112   -0.5205644165   -0.6063101517
H       -0.1472261137    0.2999021369    0.0952660286
H       -0.3892263983   -2.2775160830   -2.0037799729
C        0.3645141339    1.6463796096    1.5021865438
N        0.7854736328    2.3051214140    2.3689883643
6    
Image 2/11, Energy =  -169.0505107413 (+1.369 kcal/mol)
C       -0.3137025128   -1.4375609755   -1.3165247106
C       -0.3854269576   -0.4471332154   -0.6476055846
H       -0.3422150030    0.4092269389    0.0083651946
H       -0.2195850070   -2.3122550235   -1.8841200953
C        0.3330612699    1.6628468840    1.4736554575
N        0.9278681827    2.1248754571    2.3662297909
6    
Image 3/11, Energy =  -169.0471377818 (+3.486 kcal/mol)
C       -0.2810965414   -1.4046239706   -1.2619743123
C       -0.4947830621   -0.3765214605   -0.6881525234
H       -0.5398236992    0.5116720292   -0.0869417281
H       -0.0496657048   -2.3093232327   -1.7342375864
C        0.3238592382    1.6532696521    1.4448079227
N        1.0415097624    1.9255270856    2.3264982489
6    
Image 4/11, Energy =  -169.0425140105 (+6.387 kcal/mol)
C       -0.2467405034   -1.3531417516   -1.1930347859
C       -0.5962632731   -0.3093336321   -0.7263713508
H       -0.7422049135    0.6030316664   -0.1944610171
H        0.1177665166   -2.2645050365   -1.5548035508
C        0.3384577855    1.6022947981    1.4072440040
N        1.1289843729    1.7216540421    2.2614266702
6    
Image 5/11, Energy =  -169.0365110417 (+10.154 kcal/mol)
C       -0.2145766029   -1.2837071303   -1.1137691717
C       -0.6817662868   -0.2447716381   -0.7545602979
H       -0.9425334507    0.6803474366   -0.3121163967
H        0.2760621030   -2.1760717661   -1.3507500563
C        0.3694999700    1.4979281469    1.3499468975
N        1.1933142495    1.5262750705    2.1812489514
6    
Image 6/11, Energy =  -169.0279665972 (+15.516 kcal/mol)
C       -0.1956235642   -1.2050139575   -1.0393895215
C       -0.7327290908   -0.1779213672   -0.7526911398
H       -1.1252604374    0.7399658291   -0.4285558097
H        0.4154946502   -2.0470018435   -1.1351694732
C        0.4073438247    1.3312372376    1.2624101308
N        1.2307745878    1.3587342872    2.0933957546
6    
Image 7/11, Energy =  -169.0120441892 (+25.507 kcal/mol)
C       -0.2101985359   -1.1421635787   -1.0048152263
C       -0.7111710154   -0.0970131414   -0.6814378901
H       -1.2622683470    0.7736988453   -0.5244182979
H        0.5177850923   -1.8913227453   -0.9333230519
C        0.4407065548    1.1146886224    1.1439002684
N        1.2251461885    1.2421121561    2.0000940796
6    
Image 8/11, Energy =  -168.9962095799 (+35.444 kcal/mol)
C       -0.2521019788   -1.1071225882   -1.0124977123
C       -0.6147169085    0.0007661855   -0.5348184061
H       -1.3285273871    0.7771610506   -0.5801572646
H        0.5733091582   -1.7452323251   -0.7799517282
C        0.4535628949    0.9029219771    1.0129924518
N        1.1684741816    1.1715058664    1.8944325132
6    
Image 9/11, Energy =  -169.0185482367 (+21.426 kcal/mol)
C       -0.2719627220   -1.0757314906   -1.0098527896
C       -0.5069208529    0.0856170831   -0.3812100868
H       -1.3135117808    0.7752544816   -0.5708756611
H        0.5941011692   -1.6770998350   -0.7120047022
C        0.4053045038    0.7756590956    0.8955908692
N        1.0929896319    1.1163007495    1.7783522509
6    
Image 10/11, Energy =  -169.0437609544 (+5.605 kcal/mol)
C       -0.2721093513   -1.0384613434   -0.9953339881
C       -0.4664498990    0.1336943575   -0.3047184047
H       -1.3026915424    0.8069996864   -0.5503883163
H        0.6404231461   -1.5232274468   -0.5526624607
C        0.3524169885    0.6272448767    0.7650856657
N        1.0484106581    0.9937498643    1.6380174988
