6    
Image 0/11, Energy =  -169.0522692293 (+0.156 kcal/mol)
C       -0.3689809232   -1.4576547332   -1.3858823910
C       -0.1536196575   -0.5941379364   -0.5627748996
H        0.0498937432    0.2058682499    0.1931202386
H       -0.5557149982   -2.2230003307   -2.1042277546
C        0.4068909404    1.6172446315    1.5286738868
N        0.6215308952    2.4516801189    2.3310909145
6    
Image 1/11, Energy =  -169.0525184045 (+0.000 kcal/mol)
C       -0.3496781805   -1.4462824212   -1.3692458498
C       -0.2793036554   -0.5282191853   -0.6026747559
H       -0.1330887202    0.2746000725    0.1170976443
H       -0.3993179208   -2.2660019955   -2.0244069178
C        0.4307596480    1.5865375040    1.5388789121
N        0.7306288238    2.3793660196    2.3403509428
6    
Image 2/11, Energy =  -169.0498369352 (+1.683 kcal/mol)
C       -0.3262706316   -1.4320494934   -1.3391321037
C       -0.3992606671   -0.4613850443   -0.6426413068
H       -0.3200151559    0.3668506035    0.0467314253
H       -0.2386577899   -2.2946801942   -1.9266179285
C        0.4461829252    1.5456377420    1.5195535967
N        0.8380213424    2.2756263738    2.3421063039
6    
Image 3/11, Energy =  -169.0460276894 (+4.073 kcal/mol)
C       -0.2973090057   -1.4079969609   -1.2899168952
C       -0.5097982099   -0.3961613875   -0.6853503718
H       -0.5182429198    0.4618735116   -0.0409348029
H       -0.0749109208   -2.2956668288   -1.7974229161
C        0.4555730419    1.5060770230    1.4787704301
N        0.9446880136    2.1318746471    2.3348545482
6    
Image 4/11, Energy =  -169.0413677786 (+6.997 kcal/mol)
C       -0.2628540846   -1.3649515698   -1.2231165884
C       -0.6085934742   -0.3395159942   -0.7192428725
H       -0.7258874946    0.5535422747   -0.1491277475
H        0.0887441218   -2.2618338105   -1.6358633790
C        0.4634508355    1.4681900756    1.4171850818
N        1.0451400892    1.9445690114    2.3101655034
6    
Image 5/11, Energy =  -169.0361675633 (+10.260 kcal/mol)
C       -0.2254725491   -1.3064630601   -1.1397174986
C       -0.6888910305   -0.2796676279   -0.7409651791
H       -0.9228959874    0.6351389269   -0.2683337655
H        0.2421286878   -2.1894820295   -1.4426829604
C        0.4682014325    1.4303936253    1.3343956231
N        1.1269294457    1.7100801705    2.2573037606
6    
Image 6/11, Energy =  -169.0296009862 (+14.381 kcal/mol)
C       -0.1961255516   -1.2297717463   -1.0457749153
C       -0.7390288591   -0.2109489680   -0.7425886394
H       -1.0991523032    0.7084530886   -0.3885047918
H        0.3844116337   -2.0787684019   -1.2200177038
C        0.4727052183    1.3644640504    1.2337659312
N        1.1771898598    1.4465719576    2.1631201070
6    
Image 7/11, Energy =  -169.0168177685 (+22.402 kcal/mol)
C       -0.1932543895   -1.1570827683   -0.9823533376
C       -0.7265064689   -0.1206726502   -0.6868924793
H       -1.2383332691    0.7610878396   -0.4912661578
H        0.4995725223   -1.9335705943   -0.9932086196
C        0.4727713928    1.2210557821    1.1138839397
N        1.1857502359    1.2291823845    2.0398366267
6    
Image 8/11, Energy =  -168.9965747282 (+35.105 kcal/mol)
C       -0.2316450438   -1.1083778279   -0.9756043228
C       -0.6253950838   -0.0145584374   -0.5527863591
H       -1.3148412324    0.7769898793   -0.5531710962
H        0.5657452245   -1.7907828284   -0.8246489856
C        0.4561832584    1.0077468764    0.9891895437
N        1.1499529006    1.1289823591    1.9170211919
6    
Image 9/11, Energy =  -169.0136710704 (+24.377 kcal/mol)
C       -0.2643583590   -1.0820270542   -0.9901262499
C       -0.5104924237    0.0849454088   -0.3920073510
H       -1.3110122584    0.7798930220   -0.5583912300
H        0.5941614432   -1.7090090976   -0.7397042630
C        0.4075431846    0.8299115443    0.8826521521
N        1.0841584266    1.0962861730    1.7975769072
6    
Image 10/11, Energy =  -169.0437609544 (+5.495 kcal/mol)
C       -0.2721093513   -1.0384613434   -0.9953339881
C       -0.4664498990    0.1336943575   -0.3047184047
H       -1.3026915424    0.8069996864   -0.5503883163
H        0.6404231461   -1.5232274468   -0.5526624607
C        0.3524169885    0.6272448767    0.7650856657
N        1.0484106581    0.9937498643    1.6380174988
