6    
Image 0/11, Energy =  -169.0522692293 (+0.343 kcal/mol)
C       -0.3689809232   -1.4576547332   -1.3858823910
C       -0.1536196575   -0.5941379364   -0.5627748996
H        0.0498937432    0.2058682499    0.1931202386
H       -0.5557149982   -2.2230003307   -2.1042277546
C        0.4068909404    1.6172446315    1.5286738868
N        0.6215308952    2.4516801189    2.3310909145
6    
Image 1/11, Energy =  -169.0528156712 (+0.000 kcal/mol)
C       -0.3493271515   -1.4537045656   -1.3641261137
C       -0.2749034907   -0.5267434175   -0.6055687222
H       -0.1421010658    0.2849941591    0.1051056680
H       -0.3908544160   -2.2741324111   -2.0173821697
C        0.3898727658    1.6293928780    1.5180576169
N        0.7673134031    2.3401933880    2.3639137293
6    
Image 2/11, Energy =  -169.0507284577 (+1.310 kcal/mol)
C       -0.3267272601   -1.4405066830   -1.3332737518
C       -0.3936219719   -0.4603199983   -0.6486353747
H       -0.3336621327    0.3808105553    0.0268638467
H       -0.2233317172   -2.3082727833   -1.9116106856
C        0.3786981479    1.6285394395    1.4953624497
N        0.8986449257    2.1997495104    2.3712935161
6    
Image 3/11, Energy =  -169.0474273189 (+3.381 kcal/mol)
C       -0.2975908206   -1.4154695401   -1.2861785659
C       -0.5043557711   -0.3944913924   -0.6895355733
H       -0.5262493900    0.4757975273   -0.0621011851
H       -0.0586120170   -2.3084592862   -1.7749700820
C        0.3774471560    1.6145230026    1.4605402678
N        1.0093608542    2.0280997461    2.3522451114
6    
Image 4/11, Energy =  -169.0431061000 (+6.093 kcal/mol)
C       -0.2641841146   -1.3691461601   -1.2222801990
C       -0.6021396886   -0.3348287483   -0.7250499103
H       -0.7189912515    0.5663413710   -0.1639559566
H        0.1005755201   -2.2726794708   -1.6061155950
C        0.3878592432    1.5806376099    1.4107623069
N        1.0968803144    1.8296754403    2.3066393448
6    
Image 5/11, Energy =  -169.0375762218 (+9.563 kcal/mol)
C       -0.2302319487   -1.3050932782   -1.1434268326
C       -0.6819223198   -0.2728491512   -0.7512288821
H       -0.9102895554    0.6476267740   -0.2765938241
H        0.2519834259   -2.1961088677   -1.4073140364
C        0.4097537905    1.5101944619    1.3443606017
N        1.1607066305    1.6162300717    2.2342029660
6    
Image 6/11, Energy =  -169.0297858462 (+14.451 kcal/mol)
C       -0.2054124637   -1.2284542337   -1.0612999487
C       -0.7324469986   -0.2021468252   -0.7526577500
H       -1.0942344759    0.7154533862   -0.3928027455
H        0.3920986585   -2.0749355571   -1.1880990949
C        0.4398435374    1.3745397968    1.2532561528
N        1.2001517486    1.4155434430    2.1416033392
6    
Image 7/11, Energy =  -169.0140892987 (+24.301 kcal/mol)
C       -0.2127975226   -1.1521593724   -1.0058650268
C       -0.7197272928   -0.1104296278   -0.6916018225
H       -1.2566214813    0.7626252955   -0.5081798285
H        0.5134769649   -1.9015897853   -0.9510546001
C        0.4673235696    1.1579776818    1.1285631927
N        1.2083457533    1.2435758476    2.0281380262
6    
Image 8/11, Energy =  -168.9961398939 (+35.565 kcal/mol)
C       -0.2571083563   -1.1048102949   -1.0015895332
C       -0.6147638247    0.0174719842   -0.5328535397
H       -1.3539249839    0.7719397124   -0.5970726756
H        0.5903044423   -1.7038673961   -0.7367309317
C        0.4677121978    0.8989692575    0.9805711389
N        1.1677805034    1.1202968322    1.8876754080
6    
Image 9/11, Energy =  -169.0164530397 (+22.818 kcal/mol)
C       -0.2712346388   -1.0787285729   -1.0001479098
C       -0.5208408704    0.0904225263   -0.3998508277
H       -1.3369448368    0.7743575383   -0.5840865625
H        0.6075159551   -1.6535465350   -0.6855004211
C        0.4180346873    0.7832978246    0.8850831357
N        1.1034696773    1.0841972980    1.7845025106
6    
Image 10/11, Energy =  -169.0437609544 (+5.682 kcal/mol)
C       -0.2721093513   -1.0384613434   -0.9953339881
C       -0.4664498990    0.1336943575   -0.3047184047
H       -1.3026915424    0.8069996864   -0.5503883163
H        0.6404231461   -1.5232274468   -0.5526624607
C        0.3524169885    0.6272448767    0.7650856657
N        1.0484106581    0.9937498643    1.6380174988
