6    
Image 0/11, Energy =  -169.0522692293 (+0.817 kcal/mol)
C       -0.3689809232   -1.4576547332   -1.3858823910
C       -0.1536196575   -0.5941379364   -0.5627748996
H        0.0498937432    0.2058682499    0.1931202386
H       -0.5557149982   -2.2230003307   -2.1042277546
C        0.4068909404    1.6172446315    1.5286738868
N        0.6215308952    2.4516801189    2.3310909145
6    
Image 1/11, Energy =  -169.0535707600 (+0.000 kcal/mol)
C       -0.3535362996   -1.4841103504   -1.3950242036
C       -0.2619950291   -0.5699879307   -0.6245032075
H       -0.1399070160    0.2371892412    0.0844159481
H       -0.4218979058   -2.2927770485   -2.0639227374
C        0.3736387717    1.7085538290    1.5802125951
N        0.8036976017    2.4011321868    2.4188215703
6    
Image 2/11, Energy =  -169.0520985476 (+0.924 kcal/mol)
C       -0.3275200472   -1.4702711209   -1.3675700720
C       -0.3588606542   -0.5155039438   -0.6430067367
H       -0.3108767890    0.3197059242    0.0392705095
H       -0.2748590745   -2.3170533321   -1.9887220829
C        0.3260061605    1.7269010861    1.5604730647
N        0.9461103618    2.2562212963    2.3995554761
6    
Image 3/11, Energy =  -169.0504476763 (+1.960 kcal/mol)
C       -0.3061542300   -1.4526422730   -1.3287141218
C       -0.4143792266   -0.4602939281   -0.6651403245
H       -0.4181029837    0.4016667279   -0.0181004289
H       -0.1799665475   -2.3295093550   -1.8948070921
C        0.2938144734    1.7424221549    1.5324601457
N        1.0247885346    2.0983566357    2.3743017883
6    
Image 4/11, Energy =  -169.0461815060 (+4.637 kcal/mol)
C       -0.2637289956   -1.4034159069   -1.2445168880
C       -0.5246967904   -0.3663859690   -0.7053139987
H       -0.6384074620    0.5389890157   -0.1445288275
H        0.0087277989   -2.3176270920   -1.6853103595
C        0.2767772653    1.7629143311    1.4950657286
N        1.1413283373    1.7855256531    2.2846043252
6    
Image 5/11, Energy =  -169.0409386046 (+7.927 kcal/mol)
C       -0.2222140175   -1.3391463363   -1.1469829299
C       -0.6329879845   -0.2889489096   -0.7474132251
H       -0.8726973476    0.6423383183   -0.2945782290
H        0.1896704260   -2.2562571405   -1.4518706382
C        0.3182857150    1.7536743680    1.4704233253
N        1.2199431856    1.4883396871    2.1704219103
6    
Image 6/11, Energy =  -169.0358679365 (+11.109 kcal/mol)
C       -0.1936210049   -1.2622186891   -1.0534750614
C       -0.7220359755   -0.2229556646   -0.7912390136
H       -1.0761543113    0.7148230818   -0.4549220748
H        0.3291846925   -2.1580624451   -1.2195848901
C        0.3837852651    1.6809986636    1.4488863424
N        1.2788410889    1.2474149786    2.0703349251
6    
Image 7/11, Energy =  -169.0305028487 (+14.475 kcal/mol)
C       -0.1760567208   -1.1673676916   -0.9736140258
C       -0.7950905200   -0.1560516206   -0.8330295896
H       -1.2457173422    0.7677335326   -0.6004163944
H        0.4463353924   -2.0129930821   -0.9954889428
C        0.4180970938    1.4605478618    1.3941879219
N        1.3524320192    1.1081310564    2.0083612202
6    
Image 8/11, Energy =  -169.0188488232 (+21.788 kcal/mol)
C       -0.1854992533   -1.1133319613   -0.9550781104
C       -0.7738317495   -0.0887343241   -0.7673274123
H       -1.2954289166    0.8066042324   -0.6091868738
H        0.5219398795   -1.8806306073   -0.8508008552
C        0.4178418071    1.1704708448    1.2169011264
N        1.3149781575    1.1056217840    1.9654920411
6    
Image 9/11, Energy =  -168.9962054738 (+35.997 kcal/mol)
C       -0.2601928728   -1.1016576395   -1.0121346859
C       -0.6094510927    0.0150268453   -0.5441901053
H       -1.2995925300    0.8107146534   -0.6120297105
H        0.5393163517   -1.7607578658   -0.7496027187
C        0.4425261925    0.8889865968    1.0294949000
N        1.1873938914    1.1476875277    1.8884623409
6    
Image 10/11, Energy =  -169.0437609544 (+6.156 kcal/mol)
C       -0.2721093513   -1.0384613434   -0.9953339881
C       -0.4664498990    0.1336943575   -0.3047184047
H       -1.3026915424    0.8069996864   -0.5503883163
H        0.6404231461   -1.5232274468   -0.5526624607
C        0.3524169885    0.6272448767    0.7650856657
N        1.0484106581    0.9937498643    1.6380174988
