6    
Image 0/11, Energy =  -169.0522692293 (+0.349 kcal/mol)
C       -0.3689809232   -1.4576547332   -1.3858823910
C       -0.1536196575   -0.5941379364   -0.5627748996
H        0.0498937432    0.2058682499    0.1931202386
H       -0.5557149982   -2.2230003307   -2.1042277546
C        0.4068909404    1.6172446315    1.5286738868
N        0.6215308952    2.4516801189    2.3310909145
6    
Image 1/11, Energy =  -169.0528250666 (+0.000 kcal/mol)
C       -0.3466161288   -1.4529209683   -1.3641430397
C       -0.2748801324   -0.5274528550   -0.6053727045
H       -0.1436766035    0.2863672140    0.1024920473
H       -0.3914160307   -2.2749334858   -2.0148347815
C        0.3843633996    1.6346022079    1.5152886101
N        0.7722255032    2.3343379296    2.3665698973
6    
Image 2/11, Energy =  -169.0507456322 (+1.305 kcal/mol)
C       -0.3211271670   -1.4399155314   -1.3311550736
C       -0.3932246331   -0.4598600036   -0.6466919205
H       -0.3349708263    0.3860669981    0.0218493052
H       -0.2244182250   -2.3094690655   -1.9066332470
C        0.3673361931    1.6397568472    1.4898975573
N        0.9064046751    2.1834207949    2.3727333717
6    
Image 3/11, Energy =  -169.0474998579 (+3.342 kcal/mol)
C       -0.2926166318   -1.4118718780   -1.2817356862
C       -0.5016322470   -0.3946609201   -0.6883511642
H       -0.5268259752    0.4820958082   -0.0683075365
H       -0.0594793413   -2.3095958879   -1.7673791438
C        0.3631178034    1.6291220732    1.4559613542
N        1.0174364039    2.0049108605    2.3498121560
6    
Image 4/11, Energy =  -169.0431276485 (+6.085 kcal/mol)
C       -0.2600373247   -1.3672699646   -1.2161819785
C       -0.5992284303   -0.3316684800   -0.7246187376
H       -0.7212028442    0.5714314700   -0.1702428728
H        0.1011579246   -2.2714681388   -1.5985043490
C        0.3748079240    1.5914924644    1.4098241777
N        1.1045027462    1.8074827136    2.2997237559
6    
Image 5/11, Energy =  -169.0375422606 (+9.590 kcal/mol)
C       -0.2267834313   -1.3038404630   -1.1374503053
C       -0.6817626545   -0.2686392314   -0.7512595705
H       -0.9132393678    0.6519032564   -0.2818827089
H        0.2539389293   -2.1935373675   -1.4021067065
C        0.4009307533    1.5114141381    1.3462871658
N        1.1669157837    1.6026996942    2.2264120990
6    
Image 6/11, Energy =  -169.0294838170 (+14.647 kcal/mol)
C       -0.2041106177   -1.2232378305   -1.0552870332
C       -0.7364924675   -0.1983101609   -0.7549081096
H       -1.1011979420    0.7212819470   -0.4023635088
H        0.3989625567   -2.0672025454   -1.1754035741
C        0.4350554144    1.3668105549    1.2548827920
N        1.2077830515    1.4006580694    2.1330793712
6    
Image 7/11, Energy =  -169.0131499581 (+24.897 kcal/mol)
C       -0.2147212403   -1.1485789622   -1.0063570058
C       -0.7196989882   -0.1047963256   -0.6891167670
H       -1.2631331307    0.7668806927   -0.5180254504
H        0.5198979514   -1.8893214136   -0.9330363194
C        0.4630752457    1.1449157892    1.1280526882
N        1.2145801533    1.2309002618    2.0184827543
6    
Image 8/11, Energy =  -168.9961699230 (+35.552 kcal/mol)
C       -0.2577830212   -1.1071024507   -1.0107714206
C       -0.6115587485    0.0103230116   -0.5314483889
H       -1.3417124237    0.7715710114   -0.5878886116
H        0.5835121985   -1.7165427675   -0.7496217235
C        0.4600499641    0.9062706032    0.9902255904
N        1.1674920003    1.1354807016    1.8895044105
6    
Image 9/11, Energy =  -169.0187541409 (+21.380 kcal/mol)
C       -0.2730994301   -1.0766619692   -1.0062824899
C       -0.5120289336    0.0903348789   -0.3886218901
H       -1.3247012487    0.7712108159   -0.5810629700
H        0.6020985995   -1.6516434727   -0.6849572342
C        0.4088331021    0.7791546167    0.8841262525
N        1.0988978894    1.0876052168    1.7767982057
6    
Image 10/11, Energy =  -169.0437609544 (+5.688 kcal/mol)
C       -0.2721093513   -1.0384613434   -0.9953339881
C       -0.4664498990    0.1336943575   -0.3047184047
H       -1.3026915424    0.8069996864   -0.5503883163
H        0.6404231461   -1.5232274468   -0.5526624607
C        0.3524169885    0.6272448767    0.7650856657
N        1.0484106581    0.9937498643    1.6380174988
