6    
Image 0/11, Energy =  -169.0522692293 (+0.363 kcal/mol)
C       -0.3689809232   -1.4576547332   -1.3858823910
C       -0.1536196575   -0.5941379364   -0.5627748996
H        0.0498937432    0.2058682499    0.1931202386
H       -0.5557149982   -2.2230003307   -2.1042277546
C        0.4068909404    1.6172446315    1.5286738868
N        0.6215308952    2.4516801189    2.3310909145
6    
Image 1/11, Energy =  -169.0528481899 (+0.000 kcal/mol)
C       -0.3431491015   -1.4584664319   -1.3578981568
C       -0.2655225050   -0.5233521413   -0.6114719385
H       -0.1473868198    0.2998317706    0.0860775683
H       -0.3940192728   -2.2842126530   -2.0042466384
C        0.3477058503    1.6663709513    1.5090077331
N        0.8023718386    2.2998285663    2.3785315926
6    
Image 2/11, Energy =  -169.0506084920 (+1.405 kcal/mol)
C       -0.3115740858   -1.4409107112   -1.3152199070
C       -0.3783522186   -0.4435878503   -0.6547613334
H       -0.3455285716    0.4193115380   -0.0060868853
H       -0.2230546519   -2.3232082515   -1.8751678886
C        0.3013631013    1.6938778326    1.4854634852
N        0.9571464145    2.0945173565    2.3657724726
6    
Image 3/11, Energy =  -169.0472056391 (+3.541 kcal/mol)
C       -0.2768923411   -1.4044681553   -1.2572771037
C       -0.4877648460   -0.3678209685   -0.6964180678
H       -0.5480467453    0.5271751433   -0.1059490870
H       -0.0492338456   -2.3191443098   -1.7163969404
C        0.2844889609    1.6926938529    1.4675105835
N        1.0774488207    1.8715644209    2.3085304557
6    
Image 4/11, Energy =  -169.0426850906 (+6.377 kcal/mol)
C       -0.2396050728   -1.3499348105   -1.1852969229
C       -0.5917787143   -0.2973551084   -0.7390551667
H       -0.7591355774    0.6214824419   -0.2246177494
H        0.1227614232   -2.2720670940   -1.5272190961
C        0.2971129358    1.6499621263    1.4484513945
N        1.1706448786    1.6479124471    2.2277373035
6    
Image 5/11, Energy =  -169.0370932747 (+9.886 kcal/mol)
C       -0.2043311712   -1.2772254041   -1.1012953811
C       -0.6846386256   -0.2328791998   -0.7747675846
H       -0.9705363997    0.6972815698   -0.3574279342
H        0.2851396063   -2.1785617741   -1.3150162160
C        0.3354269757    1.5471404230    1.4051675474
N        1.2389396016    1.4442443383    2.1433395564
6    
Image 6/11, Energy =  -169.0293523666 (+14.744 kcal/mol)
C       -0.1845657516   -1.1926020332   -1.0206414111
C       -0.7486003876   -0.1677132999   -0.7806663958
H       -1.1526142617    0.7542414333   -0.4745465718
H        0.4288671666   -2.0382748755   -1.0892366530
C        0.3831347774    1.3677722557    1.3049997704
N        1.2737783701    1.2765765408    2.0600913241
6    
Image 7/11, Energy =  -169.0135257367 (+24.675 kcal/mol)
C       -0.2012058273   -1.1296807423   -0.9883909529
C       -0.7293454102   -0.0879177726   -0.7064320441
H       -1.2797416145    0.7878311871   -0.5619677228
H        0.5279237680   -1.8755090995   -0.8860133260
C        0.4234826750    1.1251862717    1.1637905785
N        1.2588862689    1.1800899889    1.9790135036
6    
Image 8/11, Energy =  -168.9961774007 (+35.561 kcal/mol)
C       -0.2504077269   -1.1026246317   -1.0116465776
C       -0.6169741653    0.0073778973   -0.5403119470
H       -1.3248939833    0.7883303708   -0.6013570476
H        0.5686218692   -1.7399189019   -0.7533989218
C        0.4404996490    0.9005071392    1.0207446642
N        1.1831542250    1.1463279963    1.8859699147
6    
Image 9/11, Energy =  -169.0167556649 (+22.648 kcal/mol)
C       -0.2705570567   -1.0735665553   -1.0106195260
C       -0.5088423005    0.0878771750   -0.3873241339
H       -1.3085981930    0.7818401012   -0.5896811652
H        0.5834271745   -1.6879069023   -0.7048362646
C        0.4009583274    0.7806829408    0.9089297543
N        1.1036119258    1.1110731202    1.7835314393
6    
Image 10/11, Energy =  -169.0437609544 (+5.702 kcal/mol)
C       -0.2721093513   -1.0384613434   -0.9953339881
C       -0.4664498990    0.1336943575   -0.3047184047
H       -1.3026915424    0.8069996864   -0.5503883163
H        0.6404231461   -1.5232274468   -0.5526624607
C        0.3524169885    0.6272448767    0.7650856657
N        1.0484106581    0.9937498643    1.6380174988
