6    
Image 0/11, Energy =  -169.0522692293 (+0.000 kcal/mol)
C       -0.3689809232   -1.4576547332   -1.3858823910
C       -0.1536196575   -0.5941379364   -0.5627748996
H        0.0498937432    0.2058682499    0.1931202386
H       -0.5557149982   -2.2230003307   -2.1042277546
C        0.4068909404    1.6172446315    1.5286738868
N        0.6215308952    2.4516801189    2.3310909145
6    
Image 1/11, Energy =  -169.0519517438 (+0.199 kcal/mol)
C       -0.3623196805   -1.4491621125   -1.3519398943
C       -0.2692149267   -0.5219156334   -0.6060491230
H       -0.1256012089    0.2745563706    0.1074859566
H       -0.3986971330   -2.2503328965   -2.0207461165
C        0.4439763579    1.5622385144    1.5395783983
N        0.7118566034    2.3846157596    2.3316707710
6    
Image 2/11, Energy =  -169.0487500048 (+2.208 kcal/mol)
C       -0.3398608278   -1.4350456651   -1.3288273626
C       -0.3883388611   -0.4623439998   -0.6376678275
H       -0.3085203187    0.3594378331    0.0443267622
H       -0.2472456140   -2.2732243865   -1.9383554447
C        0.4869209130    1.4938301572    1.5443054196
N        0.7970447021    2.3173460587    2.3162184534
6    
Image 3/11, Energy =  -169.0442660203 (+5.022 kcal/mol)
C       -0.3021030874   -1.4009525962   -1.2923193927
C       -0.4943177598   -0.4086630686   -0.6581752901
H       -0.5227378021    0.4547016839   -0.0337154312
H       -0.0878378549   -2.2761385088   -1.8189911255
C        0.5141467836    1.4338323566    1.5005127448
N        0.8928497128    2.1972201360    2.3026884973
6    
Image 4/11, Energy =  -169.0394335285 (+8.055 kcal/mol)
C       -0.2592407036   -1.3585811963   -1.2247472137
C       -0.5797190159   -0.3390325021   -0.6927372165
H       -0.7368749941    0.5489599198   -0.1450409220
H        0.0689070192   -2.2495194626   -1.6474640747
C        0.5012269629    1.4056581110    1.4137885141
N        1.0057007331    1.9925151457    2.2962009109
6    
Image 5/11, Energy =  -169.0333922965 (+11.845 kcal/mol)
C       -0.2244771829   -1.2950143155   -1.1367065383
C       -0.6472407668   -0.2715670534   -0.7145807950
H       -0.9521053412    0.6270567372   -0.2834360442
H        0.2266467872   -2.1746138617   -1.4406974226
C        0.4901154680    1.3768390208    1.3227802821
N        1.1070610430    1.7372994762    2.2526405175
6    
Image 6/11, Energy =  -169.0262227520 (+16.344 kcal/mol)
C       -0.1974854217   -1.2272585167   -1.0494402148
C       -0.6982852595   -0.2057600959   -0.7015157753
H       -1.1215992176    0.6826646532   -0.4050063588
H        0.3626515451   -2.0631008989   -1.2395748754
C        0.4896484592    1.3245327337    1.2260545852
N        1.1650698934    1.4889221301    2.1694826322
6    
Image 7/11, Energy =  -169.0143618828 (+23.787 kcal/mol)
C       -0.1923127015   -1.1629901225   -0.9599980855
C       -0.7064717495   -0.1195027560   -0.6543778325
H       -1.2376610164    0.7363876380   -0.5040002950
H        0.4824117747   -1.9234443238   -1.0330152943
C        0.4783960900    1.2299264545    1.1048890127
N        1.1756376126    1.2396231027    2.0465024913
6    
Image 8/11, Energy =  -168.9953429923 (+35.722 kcal/mol)
C       -0.2247492651   -1.1074121618   -0.9236196173
C       -0.6357331434   -0.0106712791   -0.5365490211
H       -1.2995884729    0.7762634360   -0.5798004804
H        0.5696736752   -1.7730353899   -0.8326663810
C        0.4458823845    1.0540695919    0.9696374036
N        1.1445148336    1.0607858046    1.9029980857
6    
Image 9/11, Energy =  -169.0212962577 (+19.436 kcal/mol)
C       -0.2699655326   -1.0693027270   -0.9496598955
C       -0.4966357159    0.1107987482   -0.3570655036
H       -1.3070177794    0.7759493698   -0.5865596068
H        0.6061740643   -1.6772349527   -0.7205313422
C        0.3922350245    0.8259844015    0.8432012457
N        1.0752099518    1.0338051625    1.7706150980
6    
Image 10/11, Energy =  -169.0437609544 (+5.339 kcal/mol)
C       -0.2721093513   -1.0384613434   -0.9953339881
C       -0.4664498990    0.1336943575   -0.3047184047
H       -1.3026915424    0.8069996864   -0.5503883163
H        0.6404231461   -1.5232274468   -0.5526624607
C        0.3524169885    0.6272448767    0.7650856657
N        1.0484106581    0.9937498643    1.6380174988
