6    
Image 0/11, Energy =  -169.0522692293 (+0.375 kcal/mol)
C       -0.3689809232   -1.4576547332   -1.3858823910
C       -0.1536196575   -0.5941379364   -0.5627748996
H        0.0498937432    0.2058682499    0.1931202386
H       -0.5557149982   -2.2230003307   -2.1042277546
C        0.4068909404    1.6172446315    1.5286738868
N        0.6215308952    2.4516801189    2.3310909145
6    
Image 1/11, Energy =  -169.0528661502 (+0.000 kcal/mol)
C       -0.3434198047   -1.4587212710   -1.3583652617
C       -0.2651772475   -0.5241814742   -0.6113049955
H       -0.1467020277    0.2985438474    0.0866627795
H       -0.3947325831   -2.2838493985   -2.0054942572
C        0.3484789484    1.6665660946    1.5096959731
N        0.8015526992    2.3016422623    2.3788059209
6    
Image 2/11, Energy =  -169.0506928559 (+1.364 kcal/mol)
C       -0.3124746698   -1.4420053338   -1.3169235348
C       -0.3765241133   -0.4465877749   -0.6533651371
H       -0.3416931079    0.4152092884   -0.0033122034
H       -0.2264301587   -2.3225288410   -1.8800805091
C        0.3029839037    1.6950227337    1.4861308532
N        0.9541381345    2.1008898554    2.3675504622
6    
Image 3/11, Energy =  -169.0473251187 (+3.477 kcal/mol)
C       -0.2780887926   -1.4059775234   -1.2591296760
C       -0.4852348291   -0.3707118380   -0.6942552215
H       -0.5424057114    0.5232960919   -0.1016328386
H       -0.0533757831   -2.3193281032   -1.7222695940
C        0.2853763611    1.6945362655    1.4664898818
N        1.0737287671    1.8781851098    2.3107972973
6    
Image 4/11, Energy =  -169.0428694264 (+6.273 kcal/mol)
C       -0.2412020751   -1.3524274198   -1.1877262369
C       -0.5887290075   -0.3005876310   -0.7358639879
H       -0.7504942961    0.6172764964   -0.2169835456
H        0.1175042462   -2.2737486786   -1.5355863606
C        0.2976983089    1.6529526752    1.4452422214
N        1.1652226946    1.6565345418    2.2309176831
6    
Image 5/11, Energy =  -169.0373445199 (+9.740 kcal/mol)
C       -0.2064946332   -1.2810426763   -1.1059700166
C       -0.6812278285   -0.2364828319   -0.7716525464
H       -0.9590668338    0.6931819108   -0.3465816389
H        0.2790464129   -2.1830990402   -1.3255591374
C        0.3340477060    1.5516946404    1.4029375194
N        1.2336951446    1.4557480045    2.1468257192
6    
Image 6/11, Energy =  -169.0295817151 (+14.611 kcal/mol)
C       -0.1855312330   -1.1959597544   -1.0236639493
C       -0.7466047024   -0.1704598844   -0.7791150046
H       -1.1459408281    0.7520983334   -0.4681181732
H        0.4246349885   -2.0434940803   -1.0980473383
C        0.3825951743    1.3729925323    1.3052971386
N        1.2708465327    1.2848228805    2.0636473587
6    
Image 7/11, Energy =  -169.0138365274 (+24.491 kcal/mol)
C       -0.2011702073   -1.1310696494   -0.9896271512
C       -0.7294790930   -0.0897193660   -0.7076620124
H       -1.2774209698    0.7869046699   -0.5596837552
H        0.5259862157   -1.8789859647   -0.8903384944
C        0.4232557254    1.1289973767    1.1661181872
N        1.2588282131    1.1838727922    1.9811932696
6    
Image 8/11, Energy =  -168.9961774007 (+35.573 kcal/mol)
C       -0.2504077269   -1.1026246317   -1.0116465776
C       -0.6169741653    0.0073778973   -0.5403119470
H       -1.3248939833    0.7883303708   -0.6013570476
H        0.5686218692   -1.7399189019   -0.7533989218
C        0.4404996490    0.9005071392    1.0207446642
N        1.1831542250    1.1463279963    1.8859699147
6    
Image 9/11, Energy =  -169.0167556649 (+22.660 kcal/mol)
C       -0.2705570567   -1.0735665553   -1.0106195260
C       -0.5088423005    0.0878771750   -0.3873241339
H       -1.3085981930    0.7818401012   -0.5896811652
H        0.5834271745   -1.6879069023   -0.7048362646
C        0.4009583274    0.7806829408    0.9089297543
N        1.1036119258    1.1110731202    1.7835314393
6    
Image 10/11, Energy =  -169.0437609544 (+5.714 kcal/mol)
C       -0.2721093513   -1.0384613434   -0.9953339881
C       -0.4664498990    0.1336943575   -0.3047184047
H       -1.3026915424    0.8069996864   -0.5503883163
H        0.6404231461   -1.5232274468   -0.5526624607
C        0.3524169885    0.6272448767    0.7650856657
N        1.0484106581    0.9937498643    1.6380174988
