6    
Image 0/11, Energy =  -169.0522692293 (+0.342 kcal/mol)
C       -0.3689809232   -1.4576547332   -1.3858823910
C       -0.1536196575   -0.5941379364   -0.5627748996
H        0.0498937432    0.2058682499    0.1931202386
H       -0.5557149982   -2.2230003307   -2.1042277546
C        0.4068909404    1.6172446315    1.5286738868
N        0.6215308952    2.4516801189    2.3310909145
6    
Image 1/11, Energy =  -169.0528149820 (+0.000 kcal/mol)
C       -0.3468086017   -1.4530174068   -1.3627834221
C       -0.2739893888   -0.5271200945   -0.6062569997
H       -0.1441677706    0.2869457363    0.1023323883
H       -0.3912152356   -2.2747846033   -2.0143912466
C        0.3833068375    1.6357757789    1.5145692599
N        0.7728741620    2.3322006284    2.3665300432
6    
Image 2/11, Energy =  -169.0507389133 (+1.303 kcal/mol)
C       -0.3209275963   -1.4403021102   -1.3301679620
C       -0.3917169449   -0.4588981012   -0.6467740999
H       -0.3355938722    0.3871696634    0.0208123407
H       -0.2245097406   -2.3092983146   -1.9052787334
C        0.3650078560    1.6414824984    1.4887222475
N        0.9077403245    2.1798464187    2.3726861989
6    
Image 3/11, Energy =  -169.0474851191 (+3.345 kcal/mol)
C       -0.2915549395   -1.4119298155   -1.2815034189
C       -0.5004046939   -0.3937102698   -0.6866123001
H       -0.5278050362    0.4839227219   -0.0698933145
H       -0.0595522580   -2.3093154349   -1.7654441449
C        0.3605190824    1.6307626928    1.4548711426
N        1.0187978670    2.0002701488    2.3485820198
6    
Image 4/11, Energy =  -169.0431099425 (+6.090 kcal/mol)
C       -0.2591728383   -1.3666044454   -1.2151708641
C       -0.5978596949   -0.3308010834   -0.7235857480
H       -0.7221941565    0.5735702973   -0.1716865264
H        0.1013316010   -2.2712873024   -1.5965462568
C        0.3723534247    1.5923778490    1.4095520758
N        1.1055416542    1.8027447591    2.2974373112
6    
Image 5/11, Energy =  -169.0374751177 (+9.626 kcal/mol)
C       -0.2268488636   -1.3028281359   -1.1362461836
C       -0.6805474804   -0.2675442000   -0.7506573146
H       -0.9155319472    0.6539318602   -0.2840074778
H        0.2553305040   -2.1924829413   -1.3995127593
C        0.3988976991    1.5102888278    1.3462103928
N        1.1687000874    1.5986346296    2.2242133143
6    
Image 6/11, Energy =  -169.0293197372 (+14.743 kcal/mol)
C       -0.2047043653   -1.2222942082   -1.0550957227
C       -0.7355508764   -0.1965089419   -0.7538770464
H       -1.1043198659    0.7230528773   -0.4051132134
H        0.4011109244   -2.0651288439   -1.1713736033
C        0.4337111477    1.3641450891    1.2549159290
N        1.2097530273    1.3967340698    2.1305435942
6    
Image 7/11, Energy =  -169.0129544556 (+25.013 kcal/mol)
C       -0.2152085873   -1.1485231007   -1.0067892847
C       -0.7179660009   -0.1035718650   -0.6875372365
H       -1.2633325704    0.7675556783   -0.5184262326
H        0.5203073954   -1.8889046293   -0.9322047449
C        0.4609645497    1.1429377478    1.1284044558
N        1.2152352013    1.2305062221    2.0165529366
6    
Image 8/11, Energy =  -168.9961661056 (+35.548 kcal/mol)
C       -0.2570364712   -1.1074989761   -1.0109138903
C       -0.6115887333    0.0087410885   -0.5317387599
H       -1.3391164913    0.7727948789   -0.5855129262
H        0.5824048944   -1.7218366269   -0.7546710297
C        0.4584658011    0.9083956848    0.9929457742
N        1.1668709697    1.1394040645    1.8898906879
6    
Image 9/11, Energy =  -169.0193025269 (+21.029 kcal/mol)
C       -0.2736800577   -1.0762114637   -1.0073518477
C       -0.5086201789    0.0909177491   -0.3847256893
H       -1.3220001189    0.7715383746   -0.5785566744
H        0.6009526553   -1.6569148587   -0.6895336790
C        0.4068833242    0.7788717103    0.8838176970
N        1.0964643611    1.0917985801    1.7763500754
6    
Image 10/11, Energy =  -169.0437609544 (+5.681 kcal/mol)
C       -0.2721093513   -1.0384613434   -0.9953339881
C       -0.4664498990    0.1336943575   -0.3047184047
H       -1.3026915424    0.8069996864   -0.5503883163
H        0.6404231461   -1.5232274468   -0.5526624607
C        0.3524169885    0.6272448767    0.7650856657
N        1.0484106581    0.9937498643    1.6380174988
