6    
Image 0/11, Energy =  -169.0522692293 (+0.811 kcal/mol)
C       -0.3689809232   -1.4576547332   -1.3858823910
C       -0.1536196575   -0.5941379364   -0.5627748996
H        0.0498937432    0.2058682499    0.1931202386
H       -0.5557149982   -2.2230003307   -2.1042277546
C        0.4068909404    1.6172446315    1.5286738868
N        0.6215308952    2.4516801189    2.3310909145
6    
Image 1/11, Energy =  -169.0535614709 (+0.000 kcal/mol)
C       -0.3542540035   -1.4791973164   -1.3906648927
C       -0.2640945629   -0.5632818553   -0.6217260673
H       -0.1383102711    0.2431137644    0.0886391983
H       -0.4176315524   -2.2892170956   -2.0581317953
C        0.3798810816    1.6907834541    1.5737237197
N        0.7944093413    2.3977991204    2.4081597905
6    
Image 2/11, Energy =  -169.0521427627 (+0.890 kcal/mol)
C       -0.3286735707   -1.4696032093   -1.3632570777
C       -0.3523328687   -0.5116641699   -0.6426190690
H       -0.2993399837    0.3262751574    0.0372701209
H       -0.2825131936   -2.3168713832   -1.9845571440
C        0.3254533878    1.7216095617    1.5539608440
N        0.9374064488    2.2502537891    2.3992024223
6    
Image 3/11, Energy =  -169.0501844425 (+2.119 kcal/mol)
C       -0.3036490589   -1.4490193062   -1.3242438067
C       -0.4247958560   -0.4531716977   -0.6681363742
H       -0.4352532978    0.4128291717   -0.0275518541
H       -0.1645115921   -2.3303563210   -1.8797821049
C        0.2958400135    1.7385895317    1.5287127050
N        1.0323698726    2.0811284034    2.3710013791
6    
Image 4/11, Energy =  -169.0461474229 (+4.652 kcal/mol)
C       -0.2642381006   -1.4025339517   -1.2435991123
C       -0.5247432851   -0.3651156593   -0.7044003628
H       -0.6385807636    0.5408110181   -0.1445345740
H        0.0095336464   -2.3171091877   -1.6825980762
C        0.2765748098    1.7617992032    1.4927392980
N        1.1414537085    1.7821482715    2.2823929567
6    
Image 5/11, Energy =  -169.0410597785 (+7.845 kcal/mol)
C       -0.2246163992   -1.3382189885   -1.1458809254
C       -0.6250199810   -0.2846839308   -0.7445159538
H       -0.8562382089    0.6479377958   -0.2891503288
H        0.1794563620   -2.2585962467   -1.4509845463
C        0.3100248806    1.7504309373    1.4689176136
N        1.2163933390    1.4831304643    2.1616142083
6    
Image 6/11, Energy =  -169.0356580098 (+11.235 kcal/mol)
C       -0.1938384649   -1.2566950509   -1.0488990236
C       -0.7215213777   -0.2155290106   -0.7931034794
H       -1.0752896466    0.7229944736   -0.4586857220
H        0.3307768549   -2.1526315601   -1.2079929398
C        0.3773208237    1.6593514654    1.4451048432
N        1.2825517872    1.2425095812    2.0635762684
6    
Image 7/11, Energy =  -169.0298639484 (+14.870 kcal/mol)
C       -0.1742149176   -1.1615638764   -0.9714423898
C       -0.7936834886   -0.1509411329   -0.8278345698
H       -1.2459963450    0.7715967602   -0.5946545063
H        0.4550220121   -2.0019861380   -0.9877491844
C        0.4104164856    1.4249326586    1.3745140231
N        1.3484561937    1.1179615092    2.0071665784
6    
Image 8/11, Energy =  -169.0163379674 (+23.358 kcal/mol)
C       -0.1902470447   -1.1101368055   -0.9576472400
C       -0.7619376616   -0.0781955320   -0.7498804131
H       -1.3000574704    0.8097887621   -0.6128344105
H        0.5268925014   -1.8662375023   -0.8381069445
C        0.4191175204    1.1345076591    1.1984678347
N        1.3062317761    1.1102732072    1.9600013214
6    
Image 9/11, Energy =  -168.9961821267 (+36.006 kcal/mol)
C       -0.2591225491   -1.1009583635   -1.0115848886
C       -0.6111617939    0.0155933997   -0.5443443980
H       -1.3031183160    0.8092680341   -0.6157754098
H        0.5432571183   -1.7541794375   -0.7424016457
C        0.4391188691    0.8927957438    1.0283984179
N        1.1910262316    1.1374804779    1.8857080670
6    
Image 10/11, Energy =  -169.0437609544 (+6.150 kcal/mol)
C       -0.2721093513   -1.0384613434   -0.9953339881
C       -0.4664498990    0.1336943575   -0.3047184047
H       -1.3026915424    0.8069996864   -0.5503883163
H        0.6404231461   -1.5232274468   -0.5526624607
C        0.3524169885    0.6272448767    0.7650856657
N        1.0484106581    0.9937498643    1.6380174988
