6    
Image 0/11, Energy =  -169.0522692293 (+0.129 kcal/mol)
C       -0.3689809232   -1.4576547332   -1.3858823910
C       -0.1536196575   -0.5941379364   -0.5627748996
H        0.0498937432    0.2058682499    0.1931202386
H       -0.5557149982   -2.2230003307   -2.1042277546
C        0.4068909404    1.6172446315    1.5286738868
N        0.6215308952    2.4516801189    2.3310909145
6    
Image 1/11, Energy =  -169.0524749852 (+0.000 kcal/mol)
C       -0.3402223824   -1.4500579115   -1.3513618941
C       -0.2723227270   -0.5114430006   -0.6087353294
H       -0.1546164103    0.3123564672    0.0904544664
H       -0.3821407687   -2.2802785827   -1.9908577016
C        0.3540975769    1.6450751796    1.4947918709
N        0.7952046892    2.2843478604    2.3657086347
6    
Image 2/11, Energy =  -169.0500279172 (+1.536 kcal/mol)
C       -0.3086348828   -1.4300634562   -1.3073014622
C       -0.3909729788   -0.4305996960   -0.6533335405
H       -0.3574085763    0.4300745140   -0.0023772183
H       -0.2047053030   -2.3140185687   -1.8578892164
C        0.3183043193    1.6581349491    1.4660833426
N        0.9434174072    2.0864723030    2.3548181245
6    
Image 3/11, Energy =  -169.0464268473 (+3.795 kcal/mol)
C       -0.2748435930   -1.3937797668   -1.2490075339
C       -0.5024073315   -0.3573639070   -0.6961965860
H       -0.5604335262    0.5345806519   -0.1024511293
H       -0.0298911849   -2.3056229399   -1.6996565640
C        0.3090602172    1.6429829175    1.4409428144
N        1.0585154105    1.8792030848    2.3063690156
6    
Image 4/11, Energy =  -169.0416687018 (+6.781 kcal/mol)
C       -0.2400029828   -1.3399786774   -1.1787015157
C       -0.6040230986   -0.2914321604   -0.7346503479
H       -0.7649371302    0.6242414339   -0.2143636177
H        0.1392877675   -2.2544222483   -1.5163910824
C        0.3225187035    1.5862596387    1.4093514813
N        1.1471567073    1.6753321118    2.2347550661
6    
Image 5/11, Energy =  -169.0358718423 (+10.419 kcal/mol)
C       -0.2106910797   -1.2734374368   -1.1048034810
C       -0.6868878850   -0.2333208742   -0.7610306258
H       -0.9592681799    0.6931758896   -0.3296297277
H        0.2916080513   -2.1646472266   -1.3215157170
C        0.3564273882    1.4818333800    1.3573006425
N        1.2088116975    1.4963963773    2.1596788563
6    
Image 6/11, Energy =  -169.0275261203 (+15.656 kcal/mol)
C       -0.1953508211   -1.1989521906   -1.0364672237
C       -0.7349784035   -0.1708581487   -0.7576143319
H       -1.1362721506    0.7460122560   -0.4417719506
H        0.4248493136   -2.0365683731   -1.1139188021
C        0.3991218909    1.3197410186    1.2693382300
N        1.2426301422    1.3406255621    2.0804339884
6    
Image 7/11, Energy =  -169.0117097247 (+25.581 kcal/mol)
C       -0.2107206200   -1.1400582115   -1.0043519907
C       -0.7112706070   -0.0937477317   -0.6823458501
H       -1.2664729880    0.7754133271   -0.5296077721
H        0.5215250445   -1.8847500618   -0.9227800465
C        0.4379174280    1.1103192737    1.1444806072
N        1.2290217090    1.2328235369    1.9946049395
6    
Image 8/11, Energy =  -168.9962095799 (+35.307 kcal/mol)
C       -0.2521019788   -1.1071225882   -1.0124977123
C       -0.6147169085    0.0007661855   -0.5348184061
H       -1.3285273871    0.7771610506   -0.5801572646
H        0.5733091582   -1.7452323251   -0.7799517282
C        0.4535628949    0.9029219771    1.0129924518
N        1.1684741816    1.1715058664    1.8944325132
6    
Image 9/11, Energy =  -169.0185482367 (+21.289 kcal/mol)
C       -0.2719627220   -1.0757314906   -1.0098527896
C       -0.5069208529    0.0856170831   -0.3812100868
H       -1.3135117808    0.7752544816   -0.5708756611
H        0.5941011692   -1.6770998350   -0.7120047022
C        0.4053045038    0.7756590956    0.8955908692
N        1.0929896319    1.1163007495    1.7783522509
6    
Image 10/11, Energy =  -169.0437609544 (+5.468 kcal/mol)
C       -0.2721093513   -1.0384613434   -0.9953339881
C       -0.4664498990    0.1336943575   -0.3047184047
H       -1.3026915424    0.8069996864   -0.5503883163
H        0.6404231461   -1.5232274468   -0.5526624607
C        0.3524169885    0.6272448767    0.7650856657
N        1.0484106581    0.9937498643    1.6380174988
