6    
Image 0/11, Energy =  -169.0522692293 (+0.236 kcal/mol)
C       -0.3689809232   -1.4576547332   -1.3858823910
C       -0.1536196575   -0.5941379364   -0.5627748996
H        0.0498937432    0.2058682499    0.1931202386
H       -0.5557149982   -2.2230003307   -2.1042277546
C        0.4068909404    1.6172446315    1.5286738868
N        0.6215308952    2.4516801189    2.3310909145
6    
Image 1/11, Energy =  -169.0526454343 (+0.000 kcal/mol)
C       -0.3422945563   -1.4526302059   -1.3549566853
C       -0.2703152679   -0.5185876252   -0.6069312817
H       -0.1485636187    0.3026778507    0.0944724954
H       -0.3880842205   -2.2781073055   -2.0009340698
C        0.3616579446    1.6466588520    1.5000672985
N        0.7875996831    2.2999884735    2.3682822667
6    
Image 2/11, Energy =  -169.0503766706 (+1.424 kcal/mol)
C       -0.3124173428   -1.4351316098   -1.3141880195
C       -0.3859795038   -0.4422934045   -0.6490093692
H       -0.3461418467    0.4152296285    0.0057889892
H       -0.2159289492   -2.3128816991   -1.8763876085
C        0.3285756888    1.6610388416    1.4708408454
N        0.9318919514    2.1140382857    2.3629552237
6    
Image 3/11, Energy =  -169.0468987630 (+3.606 kcal/mol)
C       -0.2789271030   -1.4003354914   -1.2586734588
C       -0.4969420019   -0.3704497705   -0.6895853424
H       -0.5463325501    0.5199027202   -0.0919983870
H       -0.0435365188   -2.3084032375   -1.7222504622
C        0.3190717761    1.6495981387    1.4428211397
N        1.0466663786    1.9096876843    2.3196865320
6    
Image 4/11, Energy =  -169.0422189721 (+6.543 kcal/mol)
C       -0.2442199445   -1.3482326538   -1.1885226772
C       -0.5987089856   -0.3033901829   -0.7278172041
H       -0.7493102143    0.6111770057   -0.2011688727
H        0.1247086452   -2.2612757046   -1.5416018399
C        0.3326828106    1.5962960486    1.4070275745
N        1.1348476896    1.7054256190    2.2520829771
6    
Image 5/11, Energy =  -169.0362622047 (+10.281 kcal/mol)
C       -0.2128425049   -1.2801555788   -1.1096914309
C       -0.6832332554   -0.2407194264   -0.7557983449
H       -0.9479380758    0.6854313805   -0.3178283909
H        0.2815434676   -2.1719598024   -1.3415431408
C        0.3640783219    1.4907264791    1.3521315878
N        1.1983920243    1.5166770748    2.1727296829
6    
Image 6/11, Energy =  -169.0278618382 (+15.552 kcal/mol)
C       -0.1956192237   -1.2032496885   -1.0384711765
C       -0.7334454123   -0.1756010896   -0.7550308819
H       -1.1287113526    0.7420787244   -0.4333388133
H        0.4184114832   -2.0438815209   -1.1285258372
C        0.4036252330    1.3270537111    1.2663595693
N        1.2357392343    1.3536000109    2.0890070486
6    
Image 7/11, Energy =  -169.0120238836 (+25.490 kcal/mol)
C       -0.2107236303   -1.1415534892   -1.0053969071
C       -0.7115812041   -0.0956760412   -0.6837810442
H       -1.2643598102    0.7741284596   -0.5267005140
H        0.5192880697   -1.8884701921   -0.9277726112
C        0.4394609441    1.1138597590    1.1454193568
N        1.2279155864    1.2377116572    1.9982315988
6    
Image 8/11, Energy =  -168.9962095799 (+35.414 kcal/mol)
C       -0.2521019788   -1.1071225882   -1.0124977123
C       -0.6147169085    0.0007661855   -0.5348184061
H       -1.3285273871    0.7771610506   -0.5801572646
H        0.5733091582   -1.7452323251   -0.7799517282
C        0.4535628949    0.9029219771    1.0129924518
N        1.1684741816    1.1715058664    1.8944325132
6    
Image 9/11, Energy =  -169.0185482367 (+21.396 kcal/mol)
C       -0.2719627220   -1.0757314906   -1.0098527896
C       -0.5069208529    0.0856170831   -0.3812100868
H       -1.3135117808    0.7752544816   -0.5708756611
H        0.5941011692   -1.6770998350   -0.7120047022
C        0.4053045038    0.7756590956    0.8955908692
N        1.0929896319    1.1163007495    1.7783522509
6    
Image 10/11, Energy =  -169.0437609544 (+5.575 kcal/mol)
C       -0.2721093513   -1.0384613434   -0.9953339881
C       -0.4664498990    0.1336943575   -0.3047184047
H       -1.3026915424    0.8069996864   -0.5503883163
H        0.6404231461   -1.5232274468   -0.5526624607
C        0.3524169885    0.6272448767    0.7650856657
N        1.0484106581    0.9937498643    1.6380174988
