6    
Image 0/11, Energy =  -169.0522692293 (+0.138 kcal/mol)
C       -0.3689809232   -1.4576547332   -1.3858823910
C       -0.1536196575   -0.5941379364   -0.5627748996
H        0.0498937432    0.2058682499    0.1931202386
H       -0.5557149982   -2.2230003307   -2.1042277546
C        0.4068909404    1.6172446315    1.5286738868
N        0.6215308952    2.4516801189    2.3310909145
6    
Image 1/11, Energy =  -169.0524897860 (+0.000 kcal/mol)
C       -0.3403778111   -1.4502755457   -1.3516410279
C       -0.2718688616   -0.5120731740   -0.6085369389
H       -0.1539868323    0.3115965558    0.0908871941
H       -0.3828195603   -2.2801346848   -1.9916900457
C        0.3544824636    1.6454370083    1.4950232491
N        0.7945705756    2.2854498528    2.3659576164
6    
Image 2/11, Energy =  -169.0500356222 (+1.540 kcal/mol)
C       -0.3086834301   -1.4301123985   -1.3074824455
C       -0.3908010333   -0.4307979859   -0.6532405420
H       -0.3571086051    0.4298148791   -0.0021337802
H       -0.2049995268   -2.3140559781   -1.8581897182
C        0.3183921105    1.6582251070    1.4660342967
N        0.9432004727    2.0869264197    2.3550122198
6    
Image 3/11, Energy =  -169.0464713895 (+3.777 kcal/mol)
C       -0.2752825450   -1.3943997864   -1.2498242682
C       -0.5017762683   -0.3584154723   -0.6957150209
H       -0.5590218493    0.5332028331   -0.1012516366
H       -0.0312350663   -2.3059277483   -1.7017489144
C        0.3099957577    1.6435622324    1.4408781345
N        1.0573199615    1.8819779753    2.3076617250
6    
Image 4/11, Energy =  -169.0416755049 (+6.786 kcal/mol)
C       -0.2400646093   -1.3400738059   -1.1787674328
C       -0.6039085402   -0.2915567193   -0.7345082185
H       -0.7645919492    0.6241220054   -0.2141159837
H        0.1390637545   -2.2545031124   -1.5167346214
C        0.3225149422    1.5863547616    1.4091993941
N        1.1469863687    1.6756569714    2.2349268478
6    
Image 5/11, Energy =  -169.0359060136 (+10.406 kcal/mol)
C       -0.2108739746   -1.2740173987   -1.1052400053
C       -0.6866320770   -0.2340249892   -0.7605009809
H       -0.9580593531    0.6925402177   -0.3285783623
H        0.2907508467   -2.1652625554   -1.3233470165
C        0.3568037794    1.4824108161    1.3569974325
N        1.2080107637    1.4983540220    2.1606688861
6    
Image 6/11, Energy =  -169.0275261203 (+15.665 kcal/mol)
C       -0.1953508211   -1.1989521906   -1.0364672237
C       -0.7349784035   -0.1708581487   -0.7576143319
H       -1.1362721506    0.7460122560   -0.4417719506
H        0.4248493136   -2.0365683731   -1.1139188021
C        0.3991218909    1.3197410186    1.2693382300
N        1.2426301422    1.3406255621    2.0804339884
6    
Image 7/11, Energy =  -169.0117671964 (+25.554 kcal/mol)
C       -0.2107649308   -1.1403466681   -1.0046214847
C       -0.7113719121   -0.0941261346   -0.6826533760
H       -1.2660464467    0.7751885488   -0.5290648938
H        0.5211503716   -1.8853426506   -0.9235333918
C        0.4382139157    1.1110502836    1.1446077917
N        1.2288189676    1.2335767556    1.9952652492
6    
Image 8/11, Energy =  -168.9962095799 (+35.316 kcal/mol)
C       -0.2521019788   -1.1071225882   -1.0124977123
C       -0.6147169085    0.0007661855   -0.5348184061
H       -1.3285273871    0.7771610506   -0.5801572646
H        0.5733091582   -1.7452323251   -0.7799517282
C        0.4535628949    0.9029219771    1.0129924518
N        1.1684741816    1.1715058664    1.8944325132
6    
Image 9/11, Energy =  -169.0185482367 (+21.299 kcal/mol)
C       -0.2719627220   -1.0757314906   -1.0098527896
C       -0.5069208529    0.0856170831   -0.3812100868
H       -1.3135117808    0.7752544816   -0.5708756611
H        0.5941011692   -1.6770998350   -0.7120047022
C        0.4053045038    0.7756590956    0.8955908692
N        1.0929896319    1.1163007495    1.7783522509
6    
Image 10/11, Energy =  -169.0437609544 (+5.477 kcal/mol)
C       -0.2721093513   -1.0384613434   -0.9953339881
C       -0.4664498990    0.1336943575   -0.3047184047
H       -1.3026915424    0.8069996864   -0.5503883163
H        0.6404231461   -1.5232274468   -0.5526624607
C        0.3524169885    0.6272448767    0.7650856657
N        1.0484106581    0.9937498643    1.6380174988
