6    
Image 0/11, Energy =  -169.0522692293 (+0.375 kcal/mol)
C       -0.3689809232   -1.4576547332   -1.3858823910
C       -0.1536196575   -0.5941379364   -0.5627748996
H        0.0498937432    0.2058682499    0.1931202386
H       -0.5557149982   -2.2230003307   -2.1042277546
C        0.4068909404    1.6172446315    1.5286738868
N        0.6215308952    2.4516801189    2.3310909145
6    
Image 1/11, Energy =  -169.0528661502 (+0.000 kcal/mol)
C       -0.3434198047   -1.4587212710   -1.3583652617
C       -0.2651772475   -0.5241814742   -0.6113049955
H       -0.1467020277    0.2985438474    0.0866627795
H       -0.3947325831   -2.2838493985   -2.0054942572
C        0.3484789484    1.6665660946    1.5096959731
N        0.8015526992    2.3016422623    2.3788059209
6    
Image 2/11, Energy =  -169.0506372511 (+1.399 kcal/mol)
C       -0.3118734795   -1.4412620157   -1.3157838931
C       -0.3777249634   -0.4446205076   -0.6542286255
H       -0.3440897331    0.4179426917   -0.0051359647
H       -0.2242524777   -2.3229612427   -1.8768317186
C        0.3018901921    1.6941902155    1.4856334421
N        0.9560504501    2.0967107747    2.3663466951
6    
Image 3/11, Energy =  -169.0472432190 (+3.528 kcal/mol)
C       -0.2772724893   -1.4049466266   -1.2578485210
C       -0.4869869887   -0.3687061353   -0.6957358854
H       -0.5462303918    0.5259803486   -0.1045567253
H       -0.0505210446   -2.3192109880   -1.7182330928
C        0.2847399568    1.6932358058    1.4671447213
N        1.0762709618    1.8736475888    2.3092293502
6    
Image 4/11, Energy =  -169.0427128289 (+6.371 kcal/mol)
C       -0.2398322021   -1.3503225430   -1.1857049936
C       -0.5913633417   -0.2978203056   -0.7386554670
H       -0.7578857904    0.6208512567   -0.2235102087
H        0.1220018534   -2.2723697973   -1.5284317359
C        0.2972467207    1.6504580230    1.4481516764
N        1.1698326343    1.6492033653    2.2281504891
6    
Image 5/11, Energy =  -169.0371623495 (+9.854 kcal/mol)
C       -0.2047156526   -1.2781238587   -1.1026712180
C       -0.6838538749   -0.2336563989   -0.7746393938
H       -0.9681294707    0.6962736304   -0.3553365248
H        0.2835938990   -2.1798996625   -1.3173009003
C        0.3346409506    1.5483373532    1.4058848062
N        1.2384641322    1.4470689050    2.1440632072
6    
Image 6/11, Energy =  -169.0294022630 (+14.724 kcal/mol)
C       -0.1847899796   -1.1933229389   -1.0213235726
C       -0.7482181579   -0.1682987919   -0.7803739523
H       -1.1511749103    0.7537851734   -0.4731248512
H        0.4279970377   -2.0393692355   -1.0910415720
C        0.3830176334    1.3689894538    1.3049967132
N        1.2731682925    1.2782163617    2.0608672970
6    
Image 7/11, Energy =  -169.0135947626 (+24.643 kcal/mol)
C       -0.2012323399   -1.1300110129   -0.9886956506
C       -0.7293729172   -0.0883274744   -0.7067095325
H       -1.2791910026    0.7876568759   -0.5614297830
H        0.5275202187   -1.8762695166   -0.8869347944
C        0.4234175190    1.1260866145    1.1643079350
N        1.2588583836    1.1808643552    1.9794618592
6    
Image 8/11, Energy =  -168.9961774007 (+35.573 kcal/mol)
C       -0.2504077269   -1.1026246317   -1.0116465776
C       -0.6169741653    0.0073778973   -0.5403119470
H       -1.3248939833    0.7883303708   -0.6013570476
H        0.5686218692   -1.7399189019   -0.7533989218
C        0.4404996490    0.9005071392    1.0207446642
N        1.1831542250    1.1463279963    1.8859699147
6    
Image 9/11, Energy =  -169.0167556649 (+22.660 kcal/mol)
C       -0.2705570567   -1.0735665553   -1.0106195260
C       -0.5088423005    0.0878771750   -0.3873241339
H       -1.3085981930    0.7818401012   -0.5896811652
H        0.5834271745   -1.6879069023   -0.7048362646
C        0.4009583274    0.7806829408    0.9089297543
N        1.1036119258    1.1110731202    1.7835314393
6    
Image 10/11, Energy =  -169.0437609544 (+5.714 kcal/mol)
C       -0.2721093513   -1.0384613434   -0.9953339881
C       -0.4664498990    0.1336943575   -0.3047184047
H       -1.3026915424    0.8069996864   -0.5503883163
H        0.6404231461   -1.5232274468   -0.5526624607
C        0.3524169885    0.6272448767    0.7650856657
N        1.0484106581    0.9937498643    1.6380174988
