6    
Image 0/11, Energy =  -169.0522692293 (+0.335 kcal/mol)
C       -0.3689809232   -1.4576547332   -1.3858823910
C       -0.1536196575   -0.5941379364   -0.5627748996
H        0.0498937432    0.2058682499    0.1931202386
H       -0.5557149982   -2.2230003307   -2.1042277546
C        0.4068909404    1.6172446315    1.5286738868
N        0.6215308952    2.4516801189    2.3310909145
6    
Image 1/11, Energy =  -169.0528029138 (+0.000 kcal/mol)
C       -0.3504554623   -1.4533316158   -1.3632082249
C       -0.2745699286   -0.5269112700   -0.6065853089
H       -0.1416945432    0.2840592596    0.1064770031
H       -0.3906818525   -2.2732065493   -2.0181316839
C        0.3923187377    1.6267274075    1.5188257519
N        0.7650830918    2.3426627909    2.3626224556
6    
Image 2/11, Energy =  -169.0506980608 (+1.321 kcal/mol)
C       -0.3282018716   -1.4407264756   -1.3339871235
C       -0.3933691060   -0.4600361534   -0.6490477896
H       -0.3331599578    0.3790824544    0.0283355908
H       -0.2235458727   -2.3071573531   -1.9126215695
C        0.3828230975    1.6229081774    1.4966330735
N        0.8954536960    2.2059293937    2.3706878189
6    
Image 3/11, Energy =  -169.0473650262 (+3.412 kcal/mol)
C       -0.2992954496   -1.4122378384   -1.2864742181
C       -0.5042987387   -0.3983572918   -0.6902666062
H       -0.5262546925    0.4745466368   -0.0604354550
H       -0.0588840532   -2.3079074277   -1.7769484623
C        0.3826050570    1.6068987775    1.4611532390
N        1.0061279055    2.0370571842    2.3529714733
6    
Image 4/11, Energy =  -169.0430475964 (+6.122 kcal/mol)
C       -0.2653770648   -1.3694848238   -1.2243534011
C       -0.6023724726   -0.3358036861   -0.7241574625
H       -0.7187856270    0.5649557948   -0.1625061667
H        0.0999477477   -2.2720730347   -1.6082544773
C        0.3927133662    1.5742008261    1.4107520692
N        1.0938740748    1.8382049620    2.3085194263
6    
Image 5/11, Energy =  -169.0375291026 (+9.584 kcal/mol)
C       -0.2312250187   -1.3072734380   -1.1456423022
C       -0.6820119875   -0.2722956181   -0.7497490725
H       -0.9107471441    0.6466048126   -0.2756578682
H        0.2518925694   -2.1958814339   -1.4090667879
C        0.4124476064    1.5067845720    1.3422095074
N        1.1596439937    1.6220611153    2.2379065142
6    
Image 6/11, Energy =  -169.0298092090 (+14.429 kcal/mol)
C       -0.2067149120   -1.2294799143   -1.0631448709
C       -0.7306575947   -0.2032393735   -0.7513086895
H       -1.0939285875    0.7148336143   -0.3907446343
H        0.3914661460   -2.0768991733   -1.1906977725
C        0.4413412364    1.3760421050    1.2515100872
N        1.1984937099    1.4187427487    2.1443858353
6    
Image 7/11, Energy =  -169.0144137134 (+24.090 kcal/mol)
C       -0.2117643232   -1.1543339490   -1.0058587322
C       -0.7190761718   -0.1113241048   -0.6917513532
H       -1.2539502451    0.7618313331   -0.5039005832
H        0.5112648772   -1.9072351321   -0.9579295933
C        0.4679195838    1.1638813134    1.1289417344
N        1.2056062785    1.2471805819    2.0304984771
6    
Image 8/11, Energy =  -168.9960948629 (+35.585 kcal/mol)
C       -0.2559620243   -1.1042401725   -0.9983245160
C       -0.6159160095    0.0176651775   -0.5343974263
H       -1.3552541261    0.7733892054   -0.5963808309
H        0.5916159553   -1.7070168293   -0.7387109381
C        0.4686829533    0.9014329621    0.9792212111
N        1.1668332356    1.1187697523    1.8885923769
6    
Image 9/11, Energy =  -169.0158590650 (+23.183 kcal/mol)
C       -0.2715433013   -1.0796735873   -0.9999789597
C       -0.5205572215    0.0899715233   -0.4007571618
H       -1.3369813835    0.7745061802   -0.5821440041
H        0.6070719587   -1.6598285790   -0.6911444223
C        0.4199037020    0.7879907924    0.8868640873
N        1.1021062318    1.0870337519    1.7871604065
6    
Image 10/11, Energy =  -169.0437609544 (+5.674 kcal/mol)
C       -0.2721093513   -1.0384613434   -0.9953339881
C       -0.4664498990    0.1336943575   -0.3047184047
H       -1.3026915424    0.8069996864   -0.5503883163
H        0.6404231461   -1.5232274468   -0.5526624607
C        0.3524169885    0.6272448767    0.7650856657
N        1.0484106581    0.9937498643    1.6380174988
