6    
Image 0/11, Energy =  -169.0522692293 (+0.316 kcal/mol)
C       -0.3689809232   -1.4576547332   -1.3858823910
C       -0.1536196575   -0.5941379364   -0.5627748996
H        0.0498937432    0.2058682499    0.1931202386
H       -0.5557149982   -2.2230003307   -2.1042277546
C        0.4068909404    1.6172446315    1.5286738868
N        0.6215308952    2.4516801189    2.3310909145
6    
Image 1/11, Energy =  -169.0527721621 (+0.000 kcal/mol)
C       -0.3517271997   -1.4531246013   -1.3635014257
C       -0.2745662237   -0.5263879117   -0.6066047912
H       -0.1406202187    0.2817265506    0.1087674732
H       -0.3911024216   -2.2711788376   -2.0192166269
C        0.3979967943    1.6199856870    1.5207187231
N        0.7600193055    2.3489791280    2.3598366209
6    
Image 2/11, Energy =  -169.0506073736 (+1.358 kcal/mol)
C       -0.3293690896   -1.4395435205   -1.3350450608
C       -0.3937875099   -0.4604189239   -0.6491404887
H       -0.3314599673    0.3762771866    0.0312242935
H       -0.2251208326   -2.3050043239   -1.9146232461
C        0.3925155929    1.6104937381    1.5000189017
N        0.8872217925    2.2181958801    2.3675656004
6    
Image 3/11, Energy =  -169.0472340014 (+3.475 kcal/mol)
C       -0.2997630822   -1.4126056653   -1.2905307195
C       -0.5056274560   -0.3982688477   -0.6872428308
H       -0.5255848045    0.4713637160   -0.0580238882
H       -0.0608363123   -2.3052653041   -1.7797230070
C        0.3944333540    1.5902415326    1.4634476015
N        0.9973783385    2.0545345878    2.3520728192
6    
Image 4/11, Energy =  -169.0428575013 (+6.222 kcal/mol)
C       -0.2669518905   -1.3687949179   -1.2264847818
C       -0.6027755671   -0.3378738155   -0.7228061599
H       -0.7190865110    0.5623378408   -0.1601635204
H        0.0983678942   -2.2702813165   -1.6126150405
C        0.4028089157    1.5578673087    1.4100459155
N        1.0876371820    1.8567449373    2.3120235718
6    
Image 5/11, Energy =  -169.0373802213 (+9.659 kcal/mol)
C       -0.2336320944   -1.3073753021   -1.1468428689
C       -0.6815233320   -0.2747889079   -0.7482341355
H       -0.9124616629    0.6450113264   -0.2738764085
H        0.2516420539   -2.1954206644   -1.4140178943
C        0.4211923784    1.4967164474    1.3405433231
N        1.1547826686    1.6358571094    2.2424279715
6    
Image 6/11, Energy =  -169.0298242721 (+14.400 kcal/mol)
C       -0.2075205666   -1.2311212767   -1.0641620819
C       -0.7296741271   -0.2045872324   -0.7490973354
H       -1.0941864277    0.7138925413   -0.3883911767
H        0.3907376507   -2.0790605213   -1.1952777550
C        0.4461853755    1.3771837918    1.2487526244
N        1.1944580812    1.4236926970    2.1481756930
6    
Image 7/11, Energy =  -169.0150104828 (+23.696 kcal/mol)
C       -0.2096291578   -1.1565300427   -1.0042186931
C       -0.7182170184   -0.1137263204   -0.6920000185
H       -1.2496417713    0.7613589019   -0.4974224600
H        0.5079626150   -1.9164730181   -0.9684657908
C        0.4679523750    1.1755385681    1.1273973427
N        1.2015729717    1.2498319533    2.0347095783
6    
Image 8/11, Energy =  -168.9960063017 (+35.621 kcal/mol)
C       -0.2522425905   -1.1044913739   -0.9932960323
C       -0.6180823959    0.0153382834   -0.5378340711
H       -1.3527568419    0.7756397442   -0.5906839520
H        0.5907085353   -1.7194176539   -0.7494792572
C        0.4680797333    0.9135187403    0.9787047394
N        1.1642935562    1.1194123501    1.8925884658
6    
Image 9/11, Energy =  -169.0149785967 (+23.716 kcal/mol)
C       -0.2713472940   -1.0809989072   -0.9996475188
C       -0.5187591327    0.0881092206   -0.4010253199
H       -1.3329095209    0.7741828186   -0.5769920345
H        0.6038936618   -1.6720415805   -0.7032441814
C        0.4195110019    0.7976271480    0.8880194579
N        1.0996112916    1.0931213720    1.7928895555
6    
Image 10/11, Energy =  -169.0437609544 (+5.655 kcal/mol)
C       -0.2721093513   -1.0384613434   -0.9953339881
C       -0.4664498990    0.1336943575   -0.3047184047
H       -1.3026915424    0.8069996864   -0.5503883163
H        0.6404231461   -1.5232274468   -0.5526624607
C        0.3524169885    0.6272448767    0.7650856657
N        1.0484106581    0.9937498643    1.6380174988
