6    
Image 0/11, Energy =  -169.0522692293 (+0.249 kcal/mol)
C       -0.3689809232   -1.4576547332   -1.3858823910
C       -0.1536196575   -0.5941379364   -0.5627748996
H        0.0498937432    0.2058682499    0.1931202386
H       -0.5557149982   -2.2230003307   -2.1042277546
C        0.4068909404    1.6172446315    1.5286738868
N        0.6215308952    2.4516801189    2.3310909145
6    
Image 1/11, Energy =  -169.0526666393 (+0.000 kcal/mol)
C       -0.3425133446   -1.4529074306   -1.3555580426
C       -0.2704321561   -0.5194166804   -0.6066557980
H       -0.1479722294    0.3014917683    0.0948472949
H       -0.3886046778   -2.2778692699   -2.0021167202
C        0.3627349900    1.6465480558    1.5008108498
N        0.7867873850    2.3021535947    2.3686724360
6    
Image 2/11, Energy =  -169.0504679052 (+1.380 kcal/mol)
C       -0.3132376079   -1.4366317733   -1.3158202994
C       -0.3855787750   -0.4457266950   -0.6480046173
H       -0.3434315424    0.4111500198    0.0075209155
H       -0.2184909965   -2.3124584772   -1.8816066301
C        0.3316070811    1.6621912764    1.4727069127
N        0.9291318222    2.1214757086    2.3652037824
6    
Image 3/11, Energy =  -169.0470600883 (+3.518 kcal/mol)
C       -0.2802909643   -1.4030794945   -1.2611702848
C       -0.4955657796   -0.3746533680   -0.6883482785
H       -0.5419039850    0.5145198313   -0.0886756126
H       -0.0477016304   -2.3091104635   -1.7301757887
C        0.3222405623    1.6520896633    1.4440622212
N        1.0432217851    1.9202339096    2.3243077638
6    
Image 4/11, Energy =  -169.0424166286 (+6.432 kcal/mol)
C       -0.2458559832   -1.3514935759   -1.1916595212
C       -0.5971321176   -0.3073724868   -0.7266883468
H       -0.7445514411    0.6059341384   -0.1967379151
H        0.1200908852   -2.2635118963   -1.5503451284
C        0.3365121995    1.6003101033    1.4071641129
N        1.1309364461    1.7161338243    2.2582667640
6    
Image 5/11, Energy =  -169.0364283535 (+10.190 kcal/mol)
C       -0.2139720913   -1.2826089717   -1.1122644372
C       -0.6822188486   -0.2434549569   -0.7548813459
H       -0.9442345604    0.6820743108   -0.3138752301
H        0.2778629588   -2.1747330074   -1.3479716201
C        0.3677596604    1.4953930346    1.3507131995
N        1.1948028599    1.5233297119    2.1782793736
6    
Image 6/11, Energy =  -169.0279427452 (+15.514 kcal/mol)
C       -0.1955839617   -1.2044689891   -1.0389878916
C       -0.7330802455   -0.1772438263   -0.7535899429
H       -1.1263052138    0.7406975916   -0.4301257600
H        0.4164260844   -2.0460558391   -1.1331578502
C        0.4059540915    1.3298784208    1.2637003029
N        1.2325892096    1.3571928167    2.0921610659
6    
Image 7/11, Energy =  -169.0120476442 (+25.489 kcal/mol)
C       -0.2104880835   -1.1419807515   -1.0051712281
C       -0.7114087104   -0.0965501389   -0.6825424783
H       -1.2631379693    0.7738197508   -0.5252991408
H        0.5183771661   -1.8901921673   -0.9310412942
C        0.4406639007    1.1145735349    1.1448080972
N        1.2259936436    1.2403299266    1.9992459240
6    
Image 8/11, Energy =  -168.9962095799 (+35.427 kcal/mol)
C       -0.2521019788   -1.1071225882   -1.0124977123
C       -0.6147169085    0.0007661855   -0.5348184061
H       -1.3285273871    0.7771610506   -0.5801572646
H        0.5733091582   -1.7452323251   -0.7799517282
C        0.4535628949    0.9029219771    1.0129924518
N        1.1684741816    1.1715058664    1.8944325132
6    
Image 9/11, Energy =  -169.0185482367 (+21.410 kcal/mol)
C       -0.2719627220   -1.0757314906   -1.0098527896
C       -0.5069208529    0.0856170831   -0.3812100868
H       -1.3135117808    0.7752544816   -0.5708756611
H        0.5941011692   -1.6770998350   -0.7120047022
C        0.4053045038    0.7756590956    0.8955908692
N        1.0929896319    1.1163007495    1.7783522509
6    
Image 10/11, Energy =  -169.0437609544 (+5.588 kcal/mol)
C       -0.2721093513   -1.0384613434   -0.9953339881
C       -0.4664498990    0.1336943575   -0.3047184047
H       -1.3026915424    0.8069996864   -0.5503883163
H        0.6404231461   -1.5232274468   -0.5526624607
C        0.3524169885    0.6272448767    0.7650856657
N        1.0484106581    0.9937498643    1.6380174988
