6    
Image 0/11, Energy =  -169.0522692293 (+0.817 kcal/mol)
C       -0.3689809232   -1.4576547332   -1.3858823910
C       -0.1536196575   -0.5941379364   -0.5627748996
H        0.0498937432    0.2058682499    0.1931202386
H       -0.5557149982   -2.2230003307   -2.1042277546
C        0.4068909404    1.6172446315    1.5286738868
N        0.6215308952    2.4516801189    2.3310909145
6    
Image 1/11, Energy =  -169.0535707600 (+0.000 kcal/mol)
C       -0.3535362996   -1.4841103504   -1.3950242036
C       -0.2619950291   -0.5699879307   -0.6245032075
H       -0.1399070160    0.2371892412    0.0844159481
H       -0.4218979058   -2.2927770485   -2.0639227374
C        0.3736387717    1.7085538290    1.5802125951
N        0.8036976017    2.4011321868    2.4188215703
6    
Image 2/11, Energy =  -169.0520985476 (+0.924 kcal/mol)
C       -0.3275200472   -1.4702711209   -1.3675700720
C       -0.3588606542   -0.5155039438   -0.6430067367
H       -0.3108767890    0.3197059242    0.0392705095
H       -0.2748590745   -2.3170533321   -1.9887220829
C        0.3260061605    1.7269010861    1.5604730647
N        0.9461103618    2.2562212963    2.3995554761
6    
Image 3/11, Energy =  -169.0504476763 (+1.960 kcal/mol)
C       -0.3061542300   -1.4526422730   -1.3287141218
C       -0.4143792266   -0.4602939281   -0.6651403245
H       -0.4181029837    0.4016667279   -0.0181004289
H       -0.1799665475   -2.3295093550   -1.8948070921
C        0.2938144734    1.7424221549    1.5324601457
N        1.0247885346    2.0983566357    2.3743017883
6    
Image 4/11, Energy =  -169.0461815060 (+4.637 kcal/mol)
C       -0.2637289956   -1.4034159069   -1.2445168880
C       -0.5246967904   -0.3663859690   -0.7053139987
H       -0.6384074620    0.5389890157   -0.1445288275
H        0.0087277989   -2.3176270920   -1.6853103595
C        0.2767772653    1.7629143311    1.4950657286
N        1.1413283373    1.7855256531    2.2846043252
6    
Image 5/11, Energy =  -169.0409386046 (+7.927 kcal/mol)
C       -0.2222140175   -1.3391463363   -1.1469829299
C       -0.6329879845   -0.2889489096   -0.7474132251
H       -0.8726973476    0.6423383183   -0.2945782290
H        0.1896704260   -2.2562571405   -1.4518706382
C        0.3182857150    1.7536743680    1.4704233253
N        1.2199431856    1.4883396871    2.1704219103
6    
Image 6/11, Energy =  -169.0358935492 (+11.093 kcal/mol)
C       -0.1942736098   -1.2619282939   -1.0544223677
C       -0.7215663374   -0.2220591707   -0.7923236710
H       -1.0734967602    0.7162529208   -0.4550184420
H        0.3267338385   -2.1588942927   -1.2201471492
C        0.3808946497    1.6759320417    1.4514929251
N        1.2817078382    1.2506967246    2.0704188421
6    
Image 7/11, Energy =  -169.0305542544 (+14.443 kcal/mol)
C       -0.1762938087   -1.1684685732   -0.9762534673
C       -0.7930066451   -0.1561595274   -0.8322459249
H       -1.2412159365    0.7679686754   -0.5960380490
H        0.4440198389   -2.0155506293   -1.0006830468
C        0.4141093277    1.4566255475    1.3950792056
N        1.3523871567    1.1155846037    2.0101415725
6    
Image 8/11, Energy =  -169.0188904357 (+21.762 kcal/mol)
C       -0.1866360174   -1.1147158087   -0.9569772759
C       -0.7735173124   -0.0896715057   -0.7673328361
H       -1.2930720704    0.8067169184   -0.6077351253
H        0.5193214880   -1.8837241082   -0.8548931457
C        0.4202921307    1.1692304337    1.2166645695
N        1.3136116453    1.1121640168    1.9702736573
6    
Image 9/11, Energy =  -168.9962172241 (+35.990 kcal/mol)
C       -0.2613433894   -1.1024858714   -1.0137409597
C       -0.6091122178    0.0141100442   -0.5447528727
H       -1.2979328029    0.8111894957   -0.6103741694
H        0.5378376835   -1.7622813537   -0.7518956095
C        0.4450355118    0.8858731129    1.0303837282
N        1.1855151690    1.1535947478    1.8903799330
6    
Image 10/11, Energy =  -169.0437609544 (+6.156 kcal/mol)
C       -0.2721093513   -1.0384613434   -0.9953339881
C       -0.4664498990    0.1336943575   -0.3047184047
H       -1.3026915424    0.8069996864   -0.5503883163
H        0.6404231461   -1.5232274468   -0.5526624607
C        0.3524169885    0.6272448767    0.7650856657
N        1.0484106581    0.9937498643    1.6380174988
