6    
Image 0/11, Energy =  -169.0522692293 (+0.202 kcal/mol)
C       -0.3689809232   -1.4576547332   -1.3858823910
C       -0.1536196575   -0.5941379364   -0.5627748996
H        0.0498937432    0.2058682499    0.1931202386
H       -0.5557149982   -2.2230003307   -2.1042277546
C        0.4068909404    1.6172446315    1.5286738868
N        0.6215308952    2.4516801189    2.3310909145
6    
Image 1/11, Energy =  -169.0525913591 (+0.000 kcal/mol)
C       -0.3416989808   -1.4518977649   -1.3536829014
C       -0.2704217146   -0.5162588513   -0.6075027140
H       -0.1503481605    0.3058558772    0.0933565207
H       -0.3864318714   -2.2788121247   -1.9977195153
C        0.3589258855    1.6464399903    1.4980813149
N        0.7899748130    2.2946729111    2.3674673330
6    
Image 2/11, Energy =  -169.0502745274 (+1.454 kcal/mol)
C       -0.3114760769   -1.4335773264   -1.3122700249
C       -0.3869816534   -0.4386563192   -0.6503471395
H       -0.3492610515    0.4195938627    0.0038072960
H       -0.2128374209   -2.3133452976   -1.8708817864
C        0.3256485131    1.6600829763    1.4693603447
N        0.9349076877    2.1059021400    2.3603313603
6    
Image 3/11, Energy =  -169.0467322805 (+3.677 kcal/mol)
C       -0.2776332081   -1.3979680446   -1.2552776334
C       -0.4985691407   -0.3656739908   -0.6919151333
H       -0.5511681454    0.5250992490   -0.0953378286
H       -0.0388890397   -2.3074570485   -1.7142743893
C        0.3156783699    1.6469952100    1.4417629246
N        1.0505811437    1.8990046544    2.3150420859
6    
Image 4/11, Energy =  -169.0420252878 (+6.630 kcal/mol)
C       -0.2427141854   -1.3452891466   -1.1850957995
C       -0.6004135583   -0.2992942585   -0.7297617230
H       -0.7542502795    0.6158123322   -0.2054476122
H        0.1294772869   -2.2588726726   -1.5330870835
C        0.3291114048    1.5923884984    1.4073522719
N        1.1387893305    1.6952553796    2.2460399103
6    
Image 5/11, Energy =  -169.0361083639 (+10.343 kcal/mol)
C       -0.2119075764   -1.2776034462   -1.1077170998
C       -0.6845991838   -0.2380208357   -0.7573836243
H       -0.9518398274    0.6884686127   -0.3221326092
H        0.2852864011   -2.1691637733   -1.3343469918
C        0.3607015933    1.4867896657    1.3539703906
N        1.2023585717    1.5095299063    2.1676099003
6    
Image 6/11, Energy =  -169.0277571032 (+15.584 kcal/mol)
C       -0.1957270969   -1.2018302558   -1.0380633507
C       -0.7339526628   -0.1738402973   -0.7563711054
H       -1.1313737645    0.7434392617   -0.4366080606
H        0.4207012198   -2.0412836395   -1.1231081110
C        0.4016098363    1.3243473390    1.2683419008
N        1.2387424272    1.3491677209    2.0858086333
6    
Image 7/11, Energy =  -169.0119818165 (+25.483 kcal/mol)
C       -0.2107772251   -1.1413336735   -1.0053232760
C       -0.7115856894   -0.0953818514   -0.6837178956
H       -1.2647110945    0.7743137468   -0.5271728529
H        0.5196802939   -1.8878100670   -0.9267883776
C        0.4392894398    1.1134449610    1.1453934031
N        1.2281042333    1.2367670343    1.9976088839
6    
Image 8/11, Energy =  -168.9962095799 (+35.380 kcal/mol)
C       -0.2521019788   -1.1071225882   -1.0124977123
C       -0.6147169085    0.0007661855   -0.5348184061
H       -1.3285273871    0.7771610506   -0.5801572646
H        0.5733091582   -1.7452323251   -0.7799517282
C        0.4535628949    0.9029219771    1.0129924518
N        1.1684741816    1.1715058664    1.8944325132
6    
Image 9/11, Energy =  -169.0185482367 (+21.362 kcal/mol)
C       -0.2719627220   -1.0757314906   -1.0098527896
C       -0.5069208529    0.0856170831   -0.3812100868
H       -1.3135117808    0.7752544816   -0.5708756611
H        0.5941011692   -1.6770998350   -0.7120047022
C        0.4053045038    0.7756590956    0.8955908692
N        1.0929896319    1.1163007495    1.7783522509
6    
Image 10/11, Energy =  -169.0437609544 (+5.541 kcal/mol)
C       -0.2721093513   -1.0384613434   -0.9953339881
C       -0.4664498990    0.1336943575   -0.3047184047
H       -1.3026915424    0.8069996864   -0.5503883163
H        0.6404231461   -1.5232274468   -0.5526624607
C        0.3524169885    0.6272448767    0.7650856657
N        1.0484106581    0.9937498643    1.6380174988
