6    
Image 0/11, Energy =  -169.0522692293 (+0.811 kcal/mol)
C       -0.3689809232   -1.4576547332   -1.3858823910
C       -0.1536196575   -0.5941379364   -0.5627748996
H        0.0498937432    0.2058682499    0.1931202386
H       -0.5557149982   -2.2230003307   -2.1042277546
C        0.4068909404    1.6172446315    1.5286738868
N        0.6215308952    2.4516801189    2.3310909145
6    
Image 1/11, Energy =  -169.0535614709 (+0.000 kcal/mol)
C       -0.3542540035   -1.4791973164   -1.3906648927
C       -0.2640945629   -0.5632818553   -0.6217260673
H       -0.1383102711    0.2431137644    0.0886391983
H       -0.4176315524   -2.2892170956   -2.0581317953
C        0.3798810816    1.6907834541    1.5737237197
N        0.7944093413    2.3977991204    2.4081597905
6    
Image 2/11, Energy =  -169.0521427627 (+0.890 kcal/mol)
C       -0.3286735707   -1.4696032093   -1.3632570777
C       -0.3523328687   -0.5116641699   -0.6426190690
H       -0.2993399837    0.3262751574    0.0372701209
H       -0.2825131936   -2.3168713832   -1.9845571440
C        0.3254533878    1.7216095617    1.5539608440
N        0.9374064488    2.2502537891    2.3992024223
6    
Image 3/11, Energy =  -169.0501844425 (+2.119 kcal/mol)
C       -0.3036490589   -1.4490193062   -1.3242438067
C       -0.4247958560   -0.4531716977   -0.6681363742
H       -0.4352532978    0.4128291717   -0.0275518541
H       -0.1645115921   -2.3303563210   -1.8797821049
C        0.2958400135    1.7385895317    1.5287127050
N        1.0323698726    2.0811284034    2.3710013791
6    
Image 4/11, Energy =  -169.0461530346 (+4.649 kcal/mol)
C       -0.2643373854   -1.4023100922   -1.2431480934
C       -0.5237700164   -0.3647557448   -0.7039962464
H       -0.6369776807    0.5413416801   -0.1440178645
H        0.0084852962   -2.3172134415   -1.6822665704
C        0.2755302572    1.7625818976    1.4924583646
N        1.1410695434    1.7803553859    2.2809705323
6    
Image 5/11, Energy =  -169.0410651199 (+7.842 kcal/mol)
C       -0.2246132675   -1.3380647391   -1.1454423628
C       -0.6245262190   -0.2841989343   -0.7445392973
H       -0.8547793232    0.6485503666   -0.2888539778
H        0.1784003610   -2.2588607400   -1.4506996660
C        0.3091779254    1.7506236161    1.4692184451
N        1.2163405195    1.4819504613    2.1603169303
6    
Image 6/11, Energy =  -169.0356631934 (+11.231 kcal/mol)
C       -0.1940044175   -1.2565765366   -1.0490775815
C       -0.7212403244   -0.2150757347   -0.7933467905
H       -1.0742880355    0.7236197347   -0.4587356791
H        0.3299371825   -2.1528886864   -1.2079765072
C        0.3763639923    1.6577710772    1.4460517179
N        1.2832315747    1.2431500377    2.0630847855
6    
Image 7/11, Energy =  -169.0298639484 (+14.870 kcal/mol)
C       -0.1742149176   -1.1615638764   -0.9714423898
C       -0.7936834886   -0.1509411329   -0.8278345698
H       -1.2459963450    0.7715967602   -0.5946545063
H        0.4550220121   -2.0019861380   -0.9877491844
C        0.4104164856    1.4249326586    1.3745140231
N        1.3484561937    1.1179615092    2.0071665784
6    
Image 8/11, Energy =  -169.0163345401 (+23.360 kcal/mol)
C       -0.1906169233   -1.1105128603   -0.9583057965
C       -0.7619474690   -0.0784016052   -0.7499142957
H       -1.2993736077    0.8098730247   -0.6123990738
H        0.5263717363   -1.8666626357   -0.8385087172
C        0.4197020267    1.1342485283    1.1981680949
N        1.3058638432    1.1114553378    1.9609599398
6    
Image 9/11, Energy =  -168.9961821267 (+36.006 kcal/mol)
C       -0.2591225491   -1.1009583635   -1.0115848886
C       -0.6111617939    0.0155933997   -0.5443443980
H       -1.3031183160    0.8092680341   -0.6157754098
H        0.5432571183   -1.7541794375   -0.7424016457
C        0.4391188691    0.8927957438    1.0283984179
N        1.1910262316    1.1374804779    1.8857080670
6    
Image 10/11, Energy =  -169.0437609544 (+6.150 kcal/mol)
C       -0.2721093513   -1.0384613434   -0.9953339881
C       -0.4664498990    0.1336943575   -0.3047184047
H       -1.3026915424    0.8069996864   -0.5503883163
H        0.6404231461   -1.5232274468   -0.5526624607
C        0.3524169885    0.6272448767    0.7650856657
N        1.0484106581    0.9937498643    1.6380174988
