6    
Image 0/11, Energy =  -169.0522692293 (+0.230 kcal/mol)
C       -0.3689809232   -1.4576547332   -1.3858823910
C       -0.1536196575   -0.5941379364   -0.5627748996
H        0.0498937432    0.2058682499    0.1931202386
H       -0.5557149982   -2.2230003307   -2.1042277546
C        0.4068909404    1.6172446315    1.5286738868
N        0.6215308952    2.4516801189    2.3310909145
6    
Image 1/11, Energy =  -169.0526353176 (+0.000 kcal/mol)
C       -0.3512307321   -1.4486067676   -1.3676430794
C       -0.2778280664   -0.5271595550   -0.6028830329
H       -0.1355076673    0.2750096044    0.1139882785
H       -0.3956889380   -2.2667234106   -2.0225219053
C        0.4196507522    1.5975822190    1.5320405318
N        0.7406046601    2.3698979079    2.3470191658
6    
Image 2/11, Energy =  -169.0501547226 (+1.557 kcal/mol)
C       -0.3270828231   -1.4340886208   -1.3391653632
C       -0.3986360730   -0.4610490143   -0.6438118446
H       -0.3235558829    0.3693422253    0.0398869311
H       -0.2337185769   -2.2986949776   -1.9218039332
C        0.4271250816    1.5672380450    1.5125206369
N        0.8558682850    2.2572523460    2.3523735672
6    
Image 3/11, Energy =  -169.0464899895 (+3.856 kcal/mol)
C       -0.2986865511   -1.4068526003   -1.2935315532
C       -0.5092853481   -0.3996219305   -0.6837895684
H       -0.5211358083    0.4637856516   -0.0483274955
H       -0.0695563089   -2.2991184856   -1.7900910922
C        0.4350006897    1.5338880072    1.4728343690
N        0.9636633388    2.1079193523    2.3429053325
6    
Image 4/11, Energy =  -169.0419582848 (+6.700 kcal/mol)
C       -0.2665947149   -1.3672867871   -1.2276143535
C       -0.6059532651   -0.3391399282   -0.7185643248
H       -0.7225334185    0.5546166634   -0.1539371192
H        0.0922526731   -2.2636597142   -1.6272937843
C        0.4423835205    1.4987800914    1.4140838360
N        1.0604452144    1.9166896852    2.3133257436
6    
Image 5/11, Energy =  -169.0366562922 (+10.027 kcal/mol)
C       -0.2325342953   -1.3085364457   -1.1448437754
C       -0.6849930519   -0.2783605644   -0.7424435631
H       -0.9187984460    0.6376119083   -0.2700801210
H        0.2471121983   -2.1911144510   -1.4329973317
C        0.4521086339    1.4542029417    1.3356669178
N        1.1371049509    1.6861966277    2.2546978346
6    
Image 6/11, Energy =  -169.0297521566 (+14.359 kcal/mol)
C       -0.2026910307   -1.2327280945   -1.0559865759
C       -0.7347357170   -0.2079925766   -0.7445000017
H       -1.0961774686    0.7094170962   -0.3869855281
H        0.3872497208   -2.0791608879   -1.2100872733
C        0.4634636447    1.3728153477    1.2384325689
N        1.1828908438    1.4376490939    2.1591267996
6    
Image 7/11, Energy =  -169.0164846452 (+22.685 kcal/mol)
C       -0.2011251773   -1.1561949744   -0.9920251019
C       -0.7197150370   -0.1216507649   -0.6912662671
H       -1.2400331081    0.7610405469   -0.4880028438
H        0.5007160169   -1.9330885806   -0.9885685464
C        0.4701750791    1.2090269022    1.1195093101
N        1.1899822488    1.2408668891    2.0403534206
6    
Image 8/11, Energy =  -168.9961814006 (+35.425 kcal/mol)
C       -0.2376273381   -1.1080420244   -0.9815701942
C       -0.6237531833   -0.0025321040   -0.5494243901
H       -1.3291724359    0.7783916134   -0.5631410626
H        0.5757108256   -1.7706746620   -0.8009005599
C        0.4604284461    0.9740605458    0.9851921163
N        1.1544137100    1.1287966913    1.9098440438
6    
Image 9/11, Energy =  -169.0131383242 (+24.785 kcal/mol)
C       -0.2659329697   -1.0808542728   -0.9929677238
C       -0.5127246489    0.0806583161   -0.3988031373
H       -1.3132221391    0.7749314596   -0.5614082127
H        0.5914574395   -1.7005048715   -0.7345501864
C        0.4119769624    0.8240601495    0.8878658775
N        1.0884453899    1.1017092346    1.7998633309
6    
Image 10/11, Energy =  -169.0437609544 (+5.569 kcal/mol)
C       -0.2721093513   -1.0384613434   -0.9953339881
C       -0.4664498990    0.1336943575   -0.3047184047
H       -1.3026915424    0.8069996864   -0.5503883163
H        0.6404231461   -1.5232274468   -0.5526624607
C        0.3524169885    0.6272448767    0.7650856657
N        1.0484106581    0.9937498643    1.6380174988
