6    
Image 0/11, Energy =  -169.0522692293 (+0.315 kcal/mol)
C       -0.3689809232   -1.4576547332   -1.3858823910
C       -0.1536196575   -0.5941379364   -0.5627748996
H        0.0498937432    0.2058682499    0.1931202386
H       -0.5557149982   -2.2230003307   -2.1042277546
C        0.4068909404    1.6172446315    1.5286738868
N        0.6215308952    2.4516801189    2.3310909145
6    
Image 1/11, Energy =  -169.0527705616 (+0.000 kcal/mol)
C       -0.3451037110   -1.4542073145   -1.3590300094
C       -0.2712041626   -0.5238671903   -0.6060627342
H       -0.1457554648    0.2942864520    0.0985031595
H       -0.3904811271   -2.2764870185   -2.0096994520
C        0.3722053826    1.6433145470    1.5072632016
N        0.7803390956    2.3169605560    2.3690258483
6    
Image 2/11, Energy =  -169.0506465097 (+1.333 kcal/mol)
C       -0.3169198608   -1.4392747353   -1.3209954400
C       -0.3859556100   -0.4526277424   -0.6479121277
H       -0.3395756622    0.4008837901    0.0135946751
H       -0.2222542185   -2.3120390660   -1.8936642694
C        0.3436252749    1.6583615966    1.4787796052
N        0.9210800701    2.1446962365    2.3701975493
6    
Image 3/11, Energy =  -169.0473630237 (+3.393 kcal/mol)
C       -0.2854247882   -1.4093448576   -1.2682677500
C       -0.4942905386   -0.3837654484   -0.6880475950
H       -0.5343905099    0.4999485653   -0.0791122862
H       -0.0551786363   -2.3101046424   -1.7492374240
C        0.3364246097    1.6490697716    1.4483787242
N        1.0328598947    1.9541966871    2.3362863516
6    
Image 4/11, Energy =  -169.0428556949 (+6.222 kcal/mol)
C       -0.2517021875   -1.3600992700   -1.2020085107
C       -0.5946892612   -0.3186209375   -0.7241462961
H       -0.7325189290    0.5903785869   -0.1845576429
H        0.1091413390   -2.2682575383   -1.5741332595
C        0.3505343459    1.6028204306    1.4081982212
N        1.1192346784    1.7537787981    2.2766474531
6    
Image 5/11, Energy =  -169.0369269809 (+9.942 kcal/mol)
C       -0.2200939437   -1.2916412514   -1.1237916281
C       -0.6806933562   -0.2537213444   -0.7521338617
H       -0.9322231923    0.6703101285   -0.3020493570
H        0.2679294589   -2.1827990786   -1.3691597410
C        0.3808182095    1.5056892164    1.3485244313
N        1.1842628050    1.5521624335    2.1986101138
6    
Image 6/11, Energy =  -169.0283059741 (+15.352 kcal/mol)
C       -0.2006654598   -1.2112991447   -1.0462833986
C       -0.7322639970   -0.1836465600   -0.7513812518
H       -1.1194240385    0.7341771607   -0.4211243922
H        0.4116321396   -2.0517126841   -1.1453000461
C        0.4177089013    1.3431520023    1.2581749891
N        1.2230124195    1.3693293753    2.1059140335
6    
Image 7/11, Energy =  -169.0121297811 (+25.502 kcal/mol)
C       -0.2122488867   -1.1445188592   -1.0057862003
C       -0.7110067547   -0.0990015148   -0.6805049455
H       -1.2607916646    0.7718350512   -0.5203126801
H        0.5182206693   -1.8913030267   -0.9346140127
C        0.4460293636    1.1242439604    1.1370520214
N        1.2197972274    1.2387445253    2.0041657165
6    
Image 8/11, Energy =  -168.9962007525 (+35.498 kcal/mol)
C       -0.2522644974   -1.1072913997   -1.0119868783
C       -0.6142342059    0.0012118523   -0.5347891517
H       -1.3287562237    0.7767704412   -0.5793931010
H        0.5739650243   -1.7440720542   -0.7785575311
C        0.4534996928    0.9054692964    1.0106320751
N        1.1677901678    1.1679120236    1.8940944371
6    
Image 9/11, Energy =  -169.0189778392 (+21.205 kcal/mol)
C       -0.2717456411   -1.0753349520   -1.0088720598
C       -0.5057519929    0.0867922393   -0.3802268295
H       -1.3134495354    0.7752573054   -0.5700182106
H        0.5945603987   -1.6764601897   -0.7110457168
C        0.4046786777    0.7756033213    0.8929706423
N        1.0917080530    1.1141423594    1.7771920562
6    
Image 10/11, Energy =  -169.0437609544 (+5.654 kcal/mol)
C       -0.2721093513   -1.0384613434   -0.9953339881
C       -0.4664498990    0.1336943575   -0.3047184047
H       -1.3026915424    0.8069996864   -0.5503883163
H        0.6404231461   -1.5232274468   -0.5526624607
C        0.3524169885    0.6272448767    0.7650856657
N        1.0484106581    0.9937498643    1.6380174988
