6    
Image 0/11, Energy =  -169.0522692293 (+0.286 kcal/mol)
C       -0.3689809232   -1.4576547332   -1.3858823910
C       -0.1536196575   -0.5941379364   -0.5627748996
H        0.0498937432    0.2058682499    0.1931202386
H       -0.5557149982   -2.2230003307   -2.1042277546
C        0.4068909404    1.6172446315    1.5286738868
N        0.6215308952    2.4516801189    2.3310909145
6    
Image 1/11, Energy =  -169.0527257663 (+0.000 kcal/mol)
C       -0.3438248049   -1.4537948627   -1.3571410297
C       -0.2706314855   -0.5219829926   -0.6062636362
H       -0.1464963196    0.2978130224    0.0962044543
H       -0.3898330153   -2.2770304514   -2.0060839230
C        0.3671999477    1.6455366858    1.5039748017
N        0.7835856728    2.3094586309    2.3693093512
6    
Image 2/11, Energy =  -169.0505628779 (+1.357 kcal/mol)
C       -0.3147019909   -1.4388962945   -1.3176185385
C       -0.3852062387   -0.4484500498   -0.6474374923
H       -0.3410682919    0.4066345295    0.0098347281
H       -0.2206355129   -2.3120158611   -1.8873064514
C        0.3354959176    1.6625714099    1.4748539364
N        0.9261160789    2.1301563356    2.3676738436
6    
Image 3/11, Energy =  -169.0472244942 (+3.452 kcal/mol)
C       -0.2824831532   -1.4066040581   -1.2631061673
C       -0.4939196591   -0.3788073280   -0.6882724735
H       -0.5375996555    0.5077565087   -0.0844347930
H       -0.0518676328   -2.3094136860   -1.7395426833
C        0.3269146214    1.6533615602    1.4459117294
N        1.0389554798    1.9337071204    2.3294444114
6    
Image 4/11, Energy =  -169.0426303157 (+6.335 kcal/mol)
C       -0.2481262946   -1.3552915662   -1.1951628339
C       -0.5952831092   -0.3121791895   -0.7259900736
H       -0.7390946825    0.5988977618   -0.1912749314
H        0.1147292433   -2.2656290640   -1.5609269461
C        0.3418146814    1.6037101021    1.4075048165
N        1.1259601441    1.7304920219    2.2658499410
6    
Image 5/11, Energy =  -169.0366264217 (+10.102 kcal/mol)
C       -0.2157720695   -1.2854642408   -1.1164143659
C       -0.6812867005   -0.2469654658   -0.7540430880
H       -0.9400279364    0.6777543362   -0.3095458744
H        0.2736332979   -2.1780032647   -1.3550234943
C        0.3725674414    1.5009337662    1.3492800644
N        1.1908859537    1.5317449810    2.1857466800
6    
Image 6/11, Energy =  -169.0280138666 (+15.507 kcal/mol)
C       -0.1964259558   -1.2062164656   -1.0408249128
C       -0.7320733398   -0.1791672150   -0.7515685939
H       -1.1238642218    0.7386799764   -0.4263190041
H        0.4142782285   -2.0483918857   -1.1379635029
C        0.4098196585    1.3337431430    1.2607336642
N        1.2282656066    1.3613526348    2.0959422979
6    
Image 7/11, Energy =  -169.0120521227 (+25.523 kcal/mol)
C       -0.2101159025   -1.1426508812   -1.0044555564
C       -0.7107642403   -0.0977708182   -0.6801209575
H       -1.2611642572    0.7734353170   -0.5228655650
H        0.5172419999   -1.8926932106   -0.9360937509
C        0.4416390195    1.1161852450    1.1425466735
N        1.2231633092    1.2434945104    2.0009890489
6    
Image 8/11, Energy =  -168.9962095799 (+35.464 kcal/mol)
C       -0.2521019788   -1.1071225882   -1.0124977123
C       -0.6147169085    0.0007661855   -0.5348184061
H       -1.3285273871    0.7771610506   -0.5801572646
H        0.5733091582   -1.7452323251   -0.7799517282
C        0.4535628949    0.9029219771    1.0129924518
N        1.1684741816    1.1715058664    1.8944325132
6    
Image 9/11, Energy =  -169.0185482367 (+21.447 kcal/mol)
C       -0.2719627220   -1.0757314906   -1.0098527896
C       -0.5069208529    0.0856170831   -0.3812100868
H       -1.3135117808    0.7752544816   -0.5708756611
H        0.5941011692   -1.6770998350   -0.7120047022
C        0.4053045038    0.7756590956    0.8955908692
N        1.0929896319    1.1163007495    1.7783522509
6    
Image 10/11, Energy =  -169.0437609544 (+5.626 kcal/mol)
C       -0.2721093513   -1.0384613434   -0.9953339881
C       -0.4664498990    0.1336943575   -0.3047184047
H       -1.3026915424    0.8069996864   -0.5503883163
H        0.6404231461   -1.5232274468   -0.5526624607
C        0.3524169885    0.6272448767    0.7650856657
N        1.0484106581    0.9937498643    1.6380174988
