6    
Image 0/11, Energy =  -169.0522692293 (+0.000 kcal/mol)
C       -0.3689809232   -1.4576547332   -1.3858823910
C       -0.1536196575   -0.5941379364   -0.5627748996
H        0.0498937432    0.2058682499    0.1931202386
H       -0.5557149982   -2.2230003307   -2.1042277546
C        0.4068909404    1.6172446315    1.5286738868
N        0.6215308952    2.4516801189    2.3310909145
6    
Image 1/11, Energy =  -169.0439698696 (+5.208 kcal/mol)
C       -0.3553896544   -1.4223881771   -1.3652945473
C       -0.3285737370   -0.5548960153   -0.5421359116
H       -0.0586791089    0.3465528970    0.0929117940
H       -0.3952059237   -2.2905214658   -2.0473091505
C        0.4319244887    1.5502618550    1.5375487737
N        0.7059239353    2.3709909144    2.3242790445
6    
Image 2/11, Energy =  -169.0408504674 (+7.165 kcal/mol)
C       -0.3197987831   -1.4065811289   -1.3540418862
C       -0.4383855323   -0.5056080465   -0.5673020887
H       -0.2871409894    0.4412988953    0.0020260106
H       -0.2417937508   -2.3109938332   -1.9541971128
C        0.4960358233    1.4541170037    1.5724284962
N        0.7910832322    2.3277671044    2.3010865810
6    
Image 3/11, Energy =  -169.0419254689 (+6.491 kcal/mol)
C       -0.2997304528   -1.3775355511   -1.3189114844
C       -0.4937701008   -0.4289857050   -0.6190936400
H       -0.5357202158    0.4490049014   -0.0105628170
H       -0.0934745082   -2.2910895087   -1.8520814013
C        0.5682108980    1.3959500005    1.5253965463
N        0.8544843796    2.2526558657    2.2752527993
6    
Image 4/11, Energy =  -169.0301156322 (+13.902 kcal/mol)
C       -0.3010743835   -1.3258963485   -1.2505278657
C       -0.5020453520   -0.3474998809   -0.6258867533
H       -0.7570452406    0.5815625638   -0.1495026616
H        0.0744554929   -2.2807859684   -1.6536981174
C        0.5047943742    1.3840977480    1.4017761479
N        0.9809151090    1.9885218860    2.2778392502
6    
Image 5/11, Energy =  -169.0203738965 (+20.015 kcal/mol)
C       -0.2803451010   -1.2953386913   -1.1833821584
C       -0.5560543335   -0.2501549266   -0.6399644173
H       -1.0113943437    0.6880121607   -0.2881540126
H        0.2630226382   -2.2305558859   -1.4433360071
C        0.4893764155    1.3524466406    1.3145394474
N        1.0953947220    1.7355906995    2.2402971480
6    
Image 6/11, Energy =  -169.0083155202 (+27.581 kcal/mol)
C       -0.2634354411   -1.2632542153   -1.0947763169
C       -0.5986572480   -0.1542643667   -0.6554874239
H       -1.2170678509    0.7414006106   -0.3808493688
H        0.4241154419   -2.1358979996   -1.2564039933
C        0.4938533782    1.3018852508    1.2211979159
N        1.1611917199    1.5101307201    2.1663191871
6    
Image 7/11, Energy =  -168.9983923595 (+33.808 kcal/mol)
C       -0.2504678620   -1.2097657419   -1.0015270536
C       -0.6261567214   -0.0853924760   -0.5867307699
H       -1.3051506825    0.7959527241   -0.4985718951
H        0.5375521557   -2.0000512705   -1.0749562802
C        0.4749760351    1.2246358894    1.1070497699
N        1.1692470751    1.2746208720    2.0547362236
6    
Image 8/11, Energy =  -168.9858158092 (+41.700 kcal/mol)
C       -0.2534541173   -1.1561015657   -0.8897708325
C       -0.6199643658    0.0177955340   -0.4923351625
H       -1.3486495064    0.8395969708   -0.6046698436
H        0.6410629147   -1.8121707963   -0.8666425411
C        0.4381404681    1.0983106909    0.9578713620
N        1.1428646039    1.0125691638    1.8955470230
6    
Image 9/11, Energy =  -169.0123504300 (+25.049 kcal/mol)
C       -0.2723047075   -1.1120059573   -0.8809286266
C       -0.5430258440    0.1295432586   -0.3852017511
H       -1.3122701468    0.8607262333   -0.6533860387
H        0.6725144019   -1.6353111788   -0.6561626765
C        0.3568309330    0.8490990500    0.8323244980
N        1.0982553662    0.9079485914    1.7433545948
6    
Image 10/11, Energy =  -169.0437609544 (+5.339 kcal/mol)
C       -0.2721093513   -1.0384613434   -0.9953339881
C       -0.4664498990    0.1336943575   -0.3047184047
H       -1.3026915424    0.8069996864   -0.5503883163
H        0.6404231461   -1.5232274468   -0.5526624607
C        0.3524169885    0.6272448767    0.7650856657
N        1.0484106581    0.9937498643    1.6380174988
