6    
Image 0/11, Energy =  -169.0522692293 (+0.322 kcal/mol)
C       -0.3689809232   -1.4576547332   -1.3858823910
C       -0.1536196575   -0.5941379364   -0.5627748996
H        0.0498937432    0.2058682499    0.1931202386
H       -0.5557149982   -2.2230003307   -2.1042277546
C        0.4068909404    1.6172446315    1.5286738868
N        0.6215308952    2.4516801189    2.3310909145
6    
Image 1/11, Energy =  -169.0527822135 (+0.000 kcal/mol)
C       -0.3455922826   -1.4540878615   -1.3592823753
C       -0.2714100749   -0.5244851780   -0.6063639648
H       -0.1456617319    0.2930071660    0.0993386283
H       -0.3905283450   -2.2762279255   -2.0108011113
C        0.3738185299    1.6422283213    1.5080917150
N        0.7793739096    2.3195655097    2.3690171166
6    
Image 2/11, Energy =  -169.0507010345 (+1.306 kcal/mol)
C       -0.3186195031   -1.4403689769   -1.3241187999
C       -0.3863005388   -0.4543972970   -0.6474367727
H       -0.3388050669    0.3964814252    0.0156728157
H       -0.2233043994   -2.3115220409   -1.8976190195
C        0.3496780019    1.6546471653    1.4818309881
N        0.9173515328    2.1551598178    2.3716707702
6    
Image 3/11, Energy =  -169.0474338800 (+3.356 kcal/mol)
C       -0.2872311177   -1.4103108309   -1.2728550704
C       -0.4948633173   -0.3874997122   -0.6865567409
H       -0.5328714272    0.4953966047   -0.0761657394
H       -0.0570495065   -2.3106813986   -1.7549801831
C        0.3434160676    1.6451877273    1.4501402038
N        1.0285993409    1.9679076366    2.3404175320
6    
Image 4/11, Energy =  -169.0429908827 (+6.144 kcal/mol)
C       -0.2542037408   -1.3626280775   -1.2070161858
C       -0.5940677042   -0.3232215539   -0.7222214999
H       -0.7285349998    0.5856910802   -0.1802976854
H        0.1057508356   -2.2704737480   -1.5825695260
C        0.3564720293    1.6013481096    1.4086626339
N        1.1145835806    1.7692842678    2.2834422128
6    
Image 5/11, Energy =  -169.0371207996 (+9.828 kcal/mol)
C       -0.2234939567   -1.2960832013   -1.1287349312
C       -0.6793700975   -0.2584525155   -0.7502893059
H       -0.9269653249    0.6652449628   -0.2968060233
H        0.2640425315   -2.1861190407   -1.3795915524
C        0.3863984441    1.5080998909    1.3482344037
N        1.1793883557    1.5673100092    2.2071873854
6    
Image 6/11, Energy =  -169.0285145357 (+15.228 kcal/mol)
C       -0.2041964010   -1.2151640250   -1.0505538993
C       -0.7321865274   -0.1869256166   -0.7513297566
H       -1.1166774753    0.7308790009   -0.4179809008
H        0.4098838398   -2.0540001873   -1.1505517848
C        0.4232994350    1.3497672164    1.2568426146
N        1.2198771000    1.3754437205    2.1135736411
6    
Image 7/11, Energy =  -169.0121403943 (+25.503 kcal/mol)
C       -0.2147206909   -1.1460140618   -1.0074373279
C       -0.7111229135   -0.0994969507   -0.6812217857
H       -1.2617390899    0.7704162517   -0.5197929566
H        0.5195695218   -1.8886118936   -0.9313836414
C        0.4497003178    1.1296743301    1.1334127786
N        1.2183128208    1.2340324476    2.0064228160
6    
Image 8/11, Energy =  -168.9961818214 (+35.517 kcal/mol)
C       -0.2529011248   -1.1079088436   -1.0114760511
C       -0.6131663008    0.0024154540   -0.5342835090
H       -1.3294435023    0.7762223016   -0.5783825383
H        0.5755327775   -1.7410541096   -0.7750979880
C        0.4529762575    0.9091179539    1.0058114089
N        1.1670018517    1.1612073902    1.8934285297
6    
Image 9/11, Energy =  -169.0199534205 (+20.600 kcal/mol)
C       -0.2713432665   -1.0745032257   -1.0072641551
C       -0.5030678564    0.0897847541   -0.3775820938
H       -1.3137693295    0.7755861336   -0.5688462986
H        0.5956897532   -1.6759469176   -0.7090008298
C        0.4037447691    0.7747463194    0.8882048876
N        1.0887459173    1.1103330328    1.7744883792
6    
Image 10/11, Energy =  -169.0437609544 (+5.661 kcal/mol)
C       -0.2721093513   -1.0384613434   -0.9953339881
C       -0.4664498990    0.1336943575   -0.3047184047
H       -1.3026915424    0.8069996864   -0.5503883163
H        0.6404231461   -1.5232274468   -0.5526624607
C        0.3524169885    0.6272448767    0.7650856657
N        1.0484106581    0.9937498643    1.6380174988
