6    
Image 0/11, Energy =  -169.0522692293 (+0.000 kcal/mol)
C       -0.3689809232   -1.4576547332   -1.3858823910
C       -0.1536196575   -0.5941379364   -0.5627748996
H        0.0498937432    0.2058682499    0.1931202386
H       -0.5557149982   -2.2230003307   -2.1042277546
C        0.4068909404    1.6172446315    1.5286738868
N        0.6215308952    2.4516801189    2.3310909145
6    
Image 1/11, Energy =  -169.0520552227 (+0.134 kcal/mol)
C       -0.3602045002   -1.4500410918   -1.3530031214
C       -0.2668364931   -0.5180735312   -0.6102461228
H       -0.1318263091    0.2709108836    0.1130246176
H       -0.3999071690   -2.2547203388   -2.0234758181
C        0.4445148629    1.5662849780    1.5412473695
N        0.7142596182    2.3856390964    2.3324530687
6    
Image 2/11, Energy =  -169.0489159037 (+2.104 kcal/mol)
C       -0.3399263936   -1.4355354808   -1.3270606747
C       -0.3855878844   -0.4568896723   -0.6445740657
H       -0.3134386427    0.3557106060    0.0518192678
H       -0.2456534960   -2.2775537523   -1.9386203693
C        0.4828471669    1.5034824835    1.5391784995
N        0.8017592499    2.3107858168    2.3192573393
6    
Image 3/11, Energy =  -169.0446322842 (+4.792 kcal/mol)
C       -0.3015753653   -1.4040334778   -1.2867206097
C       -0.4971270103   -0.4015057455   -0.6670945401
H       -0.5200261231    0.4547640154   -0.0356991032
H       -0.0856974129   -2.2795077152   -1.8153578830
C        0.5028945366    1.4460494039    1.4963672597
N        0.9015313686    2.1842335202    2.3085048727
6    
Image 4/11, Energy =  -169.0398188547 (+7.813 kcal/mol)
C       -0.2566142403   -1.3563734884   -1.2176835108
C       -0.5925566104   -0.3392652863   -0.7047079523
H       -0.7336422665    0.5469710703   -0.1443048863
H        0.0728711140   -2.2533972063   -1.6485702594
C        0.4977712193    1.4139654214    1.4161686447
N        1.0121707888    1.9880994972    2.2990979593
6    
Image 5/11, Energy =  -169.0344216519 (+11.200 kcal/mol)
C       -0.2169965667   -1.2980679932   -1.1334391948
C       -0.6663038680   -0.2713956834   -0.7242926046
H       -0.9444781571    0.6298431748   -0.2768660096
H        0.2290020147   -2.1809845356   -1.4454178114
C        0.4890156382    1.3845813774    1.3256117145
N        1.1097609568    1.7360236623    2.2544039000
6    
Image 6/11, Energy =  -169.0276534580 (+15.447 kcal/mol)
C       -0.1919585730   -1.2252616997   -1.0437134327
C       -0.7147071667   -0.2097585661   -0.7122805461
H       -1.1167865261    0.6945520273   -0.4004686852
H        0.3689926822   -2.0714372702   -1.2391423510
C        0.4884556548    1.3313801884    1.2277743860
N        1.1660039292    1.4805253248    2.1678306167
6    
Image 7/11, Energy =  -169.0159892455 (+22.766 kcal/mol)
C       -0.1927159218   -1.1546138778   -0.9599897719
C       -0.7139657951   -0.1266065768   -0.6637008733
H       -1.2404083816    0.7496119527   -0.5015146784
H        0.4918620370   -1.9296832428   -1.0232175239
C        0.4790906622    1.2297613479    1.1064496312
N        1.1761374062    1.2315303974    2.0419732067
6    
Image 8/11, Energy =  -168.9951528714 (+35.841 kcal/mol)
C       -0.2222906054   -1.1138391406   -0.9398145430
C       -0.6373969987   -0.0060457321   -0.5387108891
H       -1.3029472187    0.7775160668   -0.5734859629
H        0.5683965241   -1.7795583008   -0.8292475700
C        0.4495409382    1.0479739009    0.9757180731
N        1.1446973765    1.0739532036    1.9055408756
6    
Image 9/11, Energy =  -169.0201318351 (+20.167 kcal/mol)
C       -0.2679911483   -1.0691918441   -0.9619336777
C       -0.4938524224    0.1045560356   -0.3601222045
H       -1.3058744137    0.7684157395   -0.5755681130
H        0.5966388210   -1.6852830811   -0.7309281343
C        0.3977679796    0.8282975647    0.8536302181
N        1.0733112012    1.0532055878    1.7749219017
6    
Image 10/11, Energy =  -169.0437609544 (+5.339 kcal/mol)
C       -0.2721093513   -1.0384613434   -0.9953339881
C       -0.4664498990    0.1336943575   -0.3047184047
H       -1.3026915424    0.8069996864   -0.5503883163
H        0.6404231461   -1.5232274468   -0.5526624607
C        0.3524169885    0.6272448767    0.7650856657
N        1.0484106581    0.9937498643    1.6380174988
