6    
Image 0/11, Energy =  -169.0522692293 (+0.306 kcal/mol)
C       -0.3689809232   -1.4576547332   -1.3858823910
C       -0.1536196575   -0.5941379364   -0.5627748996
H        0.0498937432    0.2058682499    0.1931202386
H       -0.5557149982   -2.2230003307   -2.1042277546
C        0.4068909404    1.6172446315    1.5286738868
N        0.6215308952    2.4516801189    2.3310909145
6    
Image 1/11, Energy =  -169.0527575886 (+0.000 kcal/mol)
C       -0.3447560674   -1.4543100593   -1.3585085330
C       -0.2709363070   -0.5231317174   -0.6060250179
H       -0.1459893600    0.2954452104    0.0977154018
H       -0.3902553091   -2.2766481583   -2.0085404210
C        0.3704202511    1.6441974226    1.5060736134
N        0.7815167996    2.3144473336    2.3692849737
6    
Image 2/11, Energy =  -169.0506215711 (+1.340 kcal/mol)
C       -0.3160609087   -1.4396888527   -1.3198935846
C       -0.3856348078   -0.4505781385   -0.6475313373
H       -0.3401538694    0.4031084340    0.0121000466
H       -0.2215816200   -2.3120197374   -1.8911639249
C        0.3401358636    1.6605338295    1.4771327679
N        0.9232953202    2.1386445409    2.3693560348
6    
Image 3/11, Energy =  -169.0473181283 (+3.413 kcal/mol)
C       -0.2843768123   -1.4085432221   -1.2660889528
C       -0.4940182349   -0.3818007972   -0.6883515186
H       -0.5355009439    0.5027978909   -0.0810922087
H       -0.0539440490   -2.3098328518   -1.7456679849
C        0.3323763799    1.6513765191    1.4473893994
N        1.0354636832    1.9460025565    2.3338112906
6    
Image 4/11, Energy =  -169.0427783329 (+6.262 kcal/mol)
C       -0.2504713613   -1.3581166524   -1.1992093771
C       -0.5948120957   -0.3163700456   -0.7251215994
H       -0.7349253055    0.5935181817   -0.1870680621
H        0.1112725036   -2.2672824812   -1.5691112488
C        0.3467559574    1.6037886685    1.4077405953
N        1.1221802826    1.7444623916    2.2727696628
6    
Image 5/11, Energy =  -169.0368159788 (+10.004 kcal/mol)
C       -0.2184874502   -1.2890233413   -1.1209764025
C       -0.6809526946   -0.2511718585   -0.7530549098
H       -0.9352683099    0.6732949049   -0.3050218367
H        0.2702358999   -2.1809813690   -1.3632916481
C        0.3773711717    1.5043800592    1.3487177211
N        1.1871013712    1.5435017101    2.1936270202
6    
Image 6/11, Energy =  -169.0281887771 (+15.417 kcal/mol)
C       -0.1989676258   -1.2092208589   -1.0441872732
C       -0.7320383750   -0.1818323684   -0.7513645343
H       -1.1211051099    0.7360354684   -0.4229901484
H        0.4126761533   -2.0504867562   -1.1423010002
C        0.4141442219    1.3395062281    1.2588038878
N        1.2252907031    1.3659984575    2.1020390103
6    
Image 7/11, Energy =  -169.0121056572 (+25.509 kcal/mol)
C       -0.2112052904   -1.1438352104   -1.0051921347
C       -0.7108175625   -0.0985545164   -0.6802000687
H       -1.2606055037    0.7724926179   -0.5209096855
H        0.5176121542   -1.8923936523   -0.9359331907
C        0.4440971943    1.1209690371    1.1392817524
N        1.2209189511    1.2413218722    2.0029532290
6    
Image 8/11, Energy =  -168.9962095799 (+35.484 kcal/mol)
C       -0.2521019788   -1.1071225882   -1.0124977123
C       -0.6147169085    0.0007661855   -0.5348184061
H       -1.3285273871    0.7771610506   -0.5801572646
H        0.5733091582   -1.7452323251   -0.7799517282
C        0.4535628949    0.9029219771    1.0129924518
N        1.1684741816    1.1715058664    1.8944325132
6    
Image 9/11, Energy =  -169.0185482367 (+21.467 kcal/mol)
C       -0.2719627220   -1.0757314906   -1.0098527896
C       -0.5069208529    0.0856170831   -0.3812100868
H       -1.3135117808    0.7752544816   -0.5708756611
H        0.5941011692   -1.6770998350   -0.7120047022
C        0.4053045038    0.7756590956    0.8955908692
N        1.0929896319    1.1163007495    1.7783522509
6    
Image 10/11, Energy =  -169.0437609544 (+5.645 kcal/mol)
C       -0.2721093513   -1.0384613434   -0.9953339881
C       -0.4664498990    0.1336943575   -0.3047184047
H       -1.3026915424    0.8069996864   -0.5503883163
H        0.6404231461   -1.5232274468   -0.5526624607
C        0.3524169885    0.6272448767    0.7650856657
N        1.0484106581    0.9937498643    1.6380174988
