6    
Climbing Image - Chain 52 Image 8 Energy  -168.9962095752 (+35.307 kcal/mol) RMSGrad 0.024 eV/Ang
C       -0.2521017274   -1.1071225378   -1.0124967807
C       -0.6147172349    0.0007663608   -0.5348186425
H       -1.3285275706    0.7771612328   -0.5801577220
H        0.5733094678   -1.7452322116   -0.7799511606
C        0.4535624527    0.9029231068    1.0129913839
N        1.1684746123    1.1715040456    1.8944329210
