3    
Image 0/11, Energy =   -92.8141878354 (+8.802 kcal/mol)
C       -0.7519862184   -0.8272338399    0.0000000000
N        0.0394753354    0.0434721365    0.0000000000
H        0.7125108830    0.7837617034    0.0000000000
3    
Image 1/11, Energy =   -92.8122757422 (+10.002 kcal/mol)
C       -0.6443977198   -0.8801621063    0.0000000000
N       -0.0532285721    0.1260983471   -0.0000000000
H        0.6976262918    0.7540637591    0.0000000000
3    
Image 2/11, Energy =   -92.7971813512 (+19.474 kcal/mol)
C       -0.3857469741   -0.9521372470   -0.0000000000
N       -0.2237552993    0.2156066773    0.0000000000
H        0.6095022734    0.7365305697    0.0000000000
3    
Image 3/11, Energy =   -92.7731820796 (+34.534 kcal/mol)
C       -0.2315885161   -0.9042841394   -0.0000000000
N       -0.3630266874    0.2798843682    0.0000000000
H        0.5946152035    0.6243997712    0.0000000000
3    
Image 4/11, Energy =   -92.7303653188 (+61.402 kcal/mol)
C       -0.0434858401   -0.7243436953   -0.0000000000
N       -0.5924346465    0.3303222167    0.0000000000
H        0.6359204866    0.3940214787    0.0000000000
3    
Image 5/11, Energy =   -92.7525582758 (+47.475 kcal/mol)
C        0.0154131386   -0.4718678061   -0.0000000000
N       -0.8775705543    0.2647642591    0.0000000000
H        0.8621574157    0.2071035471    0.0000000000
3    
Image 6/11, Energy =   -92.8089464346 (+12.091 kcal/mol)
C        0.0200426020   -0.2366285351   -0.0000000000
N       -1.0379481073    0.1963412410    0.0000000000
H        1.0179055053    0.0402872941    0.0000000000
3    
Image 7/11, Energy =   -92.8281425376 (+0.045 kcal/mol)
C        0.0325787393   -0.0122256441   -0.0000000000
N       -1.1122938938   -0.0422682329    0.0000000000
H        1.0797151544    0.0544938769    0.0000000000
3    
Image 8/11, Energy =   -92.8280660235 (+0.093 kcal/mol)
C        0.0175673383    0.0329074519   -0.0000000000
N       -0.9881272362   -0.5111385079    0.0000000000
H        0.9705598979    0.4782310560   -0.0000000000
3    
Image 9/11, Energy =   -92.8282149805 (+0.000 kcal/mol)
C        0.0210470166    0.0223153438    0.0000000000
N       -0.7990347643   -0.7754244714   -0.0000000000
H        0.7779877476    0.7531091278   -0.0000000000
3    
Image 10/11, Energy =   -92.8275480229 (+0.419 kcal/mol)
C        0.0194260556    0.0213642891    0.0000000000
N       -0.7589320378   -0.8347584640    0.0000000000
H        0.7395059821    0.8133941749    0.0000000000
