3    
Image 0/11, Energy =   -92.8141878354 (+8.803 kcal/mol)
C       -0.7519862184   -0.8272338399    0.0000000000
N        0.0394753354    0.0434721365    0.0000000000
H        0.7125108830    0.7837617034    0.0000000000
3    
Image 1/11, Energy =   -92.8039505916 (+15.227 kcal/mol)
C       -0.4309381766   -0.9619621698   -0.0000000000
N       -0.1725245002    0.1818083471   -0.0000000000
H        0.6034626768    0.7801538227    0.0000000000
3    
Image 2/11, Energy =   -92.7743833336 (+33.780 kcal/mol)
C       -0.2776374609   -0.8960497739   -0.0000000000
N       -0.3470547619    0.2902581436   -0.0000000000
H        0.6246922229    0.6057916303    0.0000000000
3    
Image 3/11, Energy =   -92.7235851099 (+65.657 kcal/mol)
C       -0.0228717589   -0.6472324482   -0.0000000000
N       -0.6847622123    0.3390149667   -0.0000000000
H        0.7076339712    0.3082174815    0.0000000000
3    
Image 4/11, Energy =   -92.7600030559 (+42.804 kcal/mol)
C        0.0170379999   -0.4454289325   -0.0000000000
N       -0.9004857053    0.2621030791   -0.0000000000
H        0.8834477054    0.1833258534    0.0000000000
3    
Image 5/11, Energy =   -92.8222488574 (+3.744 kcal/mol)
C        0.0260443162   -0.1338717930   -0.0000000000
N       -1.0833925848    0.1360092742   -0.0000000000
H        1.0573482686   -0.0021374812    0.0000000000
3    
Image 6/11, Energy =   -92.8282112959 (+0.003 kcal/mol)
C        0.0304305932    0.0049971689   -0.0000000000
N       -1.0786795283   -0.2735415298   -0.0000000000
H        1.0482489351    0.2685443609    0.0000000000
3    
Image 7/11, Energy =   -92.8282152908 (+0.000 kcal/mol)
C        0.0264881097    0.0152703858    0.0000000000
N       -0.9828042658   -0.5232366136    0.0000000000
H        0.9563161561    0.5079662279    0.0000000000
3    
Image 8/11, Energy =   -92.8282157928 (+0.000 kcal/mol)
C        0.0232611512    0.0195617819    0.0000000000
N       -0.8517459892   -0.7174898335    0.0000000000
H        0.8284848379    0.6979280516   -0.0000000000
3    
Image 9/11, Energy =   -92.8282156123 (+0.000 kcal/mol)
C        0.0244440148    0.0182537799    0.0000000000
N       -0.9067314910   -0.6468103686    0.0000000000
H        0.8822874762    0.6285565888   -0.0000000000
3    
Image 10/11, Energy =   -92.8275480229 (+0.419 kcal/mol)
C        0.0194260556    0.0213642891    0.0000000000
N       -0.7589320377   -0.8347584640    0.0000000000
H        0.7395059821    0.8133941749    0.0000000000
