3    
Image 0/11, Energy =   -92.8141878354 (+8.802 kcal/mol)
C       -0.7519862184   -0.8272338399    0.0000000000
N        0.0394753354    0.0434721365    0.0000000000
H        0.7125108830    0.7837617034    0.0000000000
3    
Image 1/11, Energy =   -92.8039505916 (+15.226 kcal/mol)
C       -0.4309381766   -0.9619621698   -0.0000000000
N       -0.1725245002    0.1818083471   -0.0000000000
H        0.6034626768    0.7801538227    0.0000000000
3    
Image 2/11, Energy =   -92.7748342264 (+33.497 kcal/mol)
C       -0.2802886441   -0.8980678951   -0.0000000000
N       -0.3460109133    0.2893498201   -0.0000000000
H        0.6262995573    0.6087180751    0.0000000000
3    
Image 3/11, Energy =   -92.7235814335 (+65.659 kcal/mol)
C       -0.0290427000   -0.6515409014   -0.0000000000
N       -0.6858165687    0.3370788208   -0.0000000000
H        0.7148592687    0.3144620806    0.0000000000
3    
Image 4/11, Energy =   -92.7588692174 (+43.515 kcal/mol)
C        0.0157384639   -0.4509100671   -0.0000000000
N       -0.8977779379    0.2637082602   -0.0000000000
H        0.8820394740    0.1872018069    0.0000000000
3    
Image 5/11, Energy =   -92.8233069361 (+3.080 kcal/mol)
C        0.0274755829   -0.1213675916   -0.0000000000
N       -1.0882660606    0.1191215164   -0.0000000000
H        1.0607904777    0.0022460752    0.0000000000
3    
Image 6/11, Energy =   -92.8282151202 (+0.000 kcal/mol)
C        0.0295051906    0.0079226835   -0.0000000000
N       -1.0798477238   -0.2739541983   -0.0000000000
H        1.0503425332    0.2660315147    0.0000000000
3    
Image 7/11, Energy =   -92.8282152908 (+0.000 kcal/mol)
C        0.0264881097    0.0152703858    0.0000000000
N       -0.9828042658   -0.5232366136    0.0000000000
H        0.9563161561    0.5079662279    0.0000000000
3    
Image 8/11, Energy =   -92.8282152215 (+0.000 kcal/mol)
C        0.0230698424    0.0203243320    0.0000000000
N       -0.8350215259   -0.7370948049    0.0000000000
H        0.8119516835    0.7167704729   -0.0000000000
3    
Image 9/11, Energy =   -92.8282105244 (+0.003 kcal/mol)
C        0.0242476917    0.0172963482    0.0000000000
N       -0.9212481856   -0.6246375766    0.0000000000
H        0.8970004939    0.6073412284   -0.0000000000
3    
Image 10/11, Energy =   -92.8275480229 (+0.419 kcal/mol)
C        0.0194260556    0.0213642891    0.0000000000
N       -0.7589320377   -0.8347584640    0.0000000000
H        0.7395059821    0.8133941749    0.0000000000
