3    
Image 0/11, Energy =   -92.8141878354 (+8.802 kcal/mol)
C       -0.7519862184   -0.8272338399    0.0000000000
N        0.0394753354    0.0434721365    0.0000000000
H        0.7125108830    0.7837617034    0.0000000000
3    
Image 1/11, Energy =   -92.8142368671 (+8.771 kcal/mol)
C       -0.6184843638   -0.9101871539    0.0000000000
N       -0.0130227828    0.0856443111   -0.0000000000
H        0.6315071466    0.8245428428    0.0000000000
3    
Image 2/11, Energy =   -92.7983330678 (+18.751 kcal/mol)
C       -0.3518594897   -0.9691880703    0.0000000000
N       -0.2258290437    0.1995209016    0.0000000000
H        0.5776885334    0.7696671687    0.0000000000
3    
Image 3/11, Energy =   -92.7723504925 (+35.055 kcal/mol)
C       -0.2396103790   -0.8988718747   -0.0000000000
N       -0.3664397352    0.2832646221    0.0000000000
H        0.6060501142    0.6156072526    0.0000000000
3    
Image 4/11, Energy =   -92.7236388629 (+65.623 kcal/mol)
C       -0.0137472379   -0.6432466356   -0.0000000000
N       -0.6995994960    0.3261850857    0.0000000000
H        0.7133467339    0.3170615499    0.0000000000
3    
Image 5/11, Energy =   -92.7535007045 (+46.884 kcal/mol)
C        0.0227732718   -0.4700350243   -0.0000000000
N       -0.8849991332    0.2564217941    0.0000000000
H        0.8622258613    0.2136132302    0.0000000000
3    
Image 6/11, Energy =   -92.8087519171 (+12.213 kcal/mol)
C        0.0294751020   -0.2374723180   -0.0000000000
N       -1.0453482242    0.1520074893    0.0000000000
H        1.0158731223    0.0854648286    0.0000000000
3    
Image 7/11, Energy =   -92.8281639387 (+0.032 kcal/mol)
C        0.0316220998   -0.0109676131   -0.0000000000
N       -1.1120522894   -0.0365573819    0.0000000000
H        1.0804301896    0.0475249950    0.0000000000
3    
Image 8/11, Energy =   -92.8282065864 (+0.005 kcal/mol)
C        0.0297343404    0.0093442116    0.0000000000
N       -0.9950323660   -0.5007645715    0.0000000000
H        0.9652980255    0.4914203599   -0.0000000000
3    
Image 9/11, Energy =   -92.8282149805 (+0.000 kcal/mol)
C        0.0210470166    0.0223153438    0.0000000000
N       -0.7990347643   -0.7754244714   -0.0000000000
H        0.7779877476    0.7531091278   -0.0000000000
3    
Image 10/11, Energy =   -92.8275480229 (+0.419 kcal/mol)
C        0.0194260556    0.0213642891    0.0000000000
N       -0.7589320378   -0.8347584640    0.0000000000
H        0.7395059821    0.8133941749    0.0000000000
