3    
Image 0/11, Energy =   -92.8141878354 (+8.803 kcal/mol)
C       -0.7519862184   -0.8272338399    0.0000000000
N        0.0394753354    0.0434721365    0.0000000000
H        0.7125108830    0.7837617034    0.0000000000
3    
Image 1/11, Energy =   -92.8008861566 (+17.150 kcal/mol)
C       -0.3968024121   -0.9632416013    0.0000000000
N       -0.2004038182    0.1953618015   -0.0000000000
H        0.5972062303    0.7678797998   -0.0000000000
3    
Image 2/11, Energy =   -92.7720557260 (+35.241 kcal/mol)
C       -0.2555597319   -0.8935728259    0.0000000000
N       -0.3623207014    0.2914898177   -0.0000000000
H        0.6178804334    0.6020830082   -0.0000000000
3    
Image 3/11, Energy =   -92.7236053926 (+65.644 kcal/mol)
C       -0.0180625829   -0.6485810683    0.0000000000
N       -0.6908673011    0.3296784884   -0.0000000000
H        0.7089298839    0.3189025799   -0.0000000000
3    
Image 4/11, Energy =   -92.7486310249 (+49.940 kcal/mol)
C        0.0165397989   -0.4884808632    0.0000000000
N       -0.8657107283    0.2728635146   -0.0000000000
H        0.8491709294    0.2156173486   -0.0000000000
3    
Image 5/11, Energy =   -92.7986728286 (+18.539 kcal/mol)
C        0.0258603777   -0.2916504557    0.0000000000
N       -1.0144517867    0.1880113045   -0.0000000000
H        0.9885914089    0.1036391512   -0.0000000000
3    
Image 6/11, Energy =   -92.8236140009 (+2.888 kcal/mol)
C        0.0281700792   -0.1185191960    0.0000000000
N       -1.0920582309    0.1065429184   -0.0000000000
H        1.0638881516    0.0119762777   -0.0000000000
3    
Image 7/11, Energy =   -92.8282157258 (+0.000 kcal/mol)
C        0.0298254022    0.0066025032   -0.0000000000
N       -1.0837614544   -0.2565006351   -0.0000000000
H        1.0539360522    0.2498981319   -0.0000000000
3    
Image 8/11, Energy =   -92.8282148025 (+0.001 kcal/mol)
C        0.0260153222    0.0157347306    0.0000000000
N       -0.9831530179   -0.5233823375   -0.0000000000
H        0.9571376956    0.5076476068   -0.0000000000
3    
Image 9/11, Energy =   -92.8282158224 (+0.000 kcal/mol)
C        0.0222664316    0.0208308149   -0.0000000000
N       -0.8170762024   -0.7566545789   -0.0000000000
H        0.7948097708    0.7358237640    0.0000000000
3    
Image 10/11, Energy =   -92.8275480229 (+0.419 kcal/mol)
C        0.0194260556    0.0213642891    0.0000000000
N       -0.7589320377   -0.8347584640    0.0000000000
H        0.7395059821    0.8133941749    0.0000000000
