3    
Image 0/11, Energy =   -92.8141878354 (+8.802 kcal/mol)
C       -0.7519862184   -0.8272338399    0.0000000000
N        0.0394753354    0.0434721365    0.0000000000
H        0.7125108830    0.7837617034    0.0000000000
3    
Image 1/11, Energy =   -92.8120822970 (+10.123 kcal/mol)
C       -0.6459068104   -0.8780629381    0.0000000000
N       -0.0557831576    0.1293297253   -0.0000000000
H        0.7016899680    0.7487332128    0.0000000000
3    
Image 2/11, Energy =   -92.7969667261 (+19.609 kcal/mol)
C       -0.3897170275   -0.9501678146   -0.0000000000
N       -0.2238610848    0.2182479661    0.0000000000
H        0.6135781123    0.7319198484    0.0000000000
3    
Image 3/11, Energy =   -92.7731727348 (+34.540 kcal/mol)
C       -0.2325842391   -0.9045297213   -0.0000000000
N       -0.3627217160    0.2810094884    0.0000000000
H        0.5953059552    0.6235202330    0.0000000000
3    
Image 4/11, Energy =   -92.7317144041 (+60.555 kcal/mol)
C       -0.0471774193   -0.7319327573    0.0000000000
N       -0.5813519970    0.3296464437    0.0000000000
H        0.6285294164    0.4022863136    0.0000000000
3    
Image 5/11, Energy =   -92.7524591459 (+47.538 kcal/mol)
C        0.0131719524   -0.4721025622   -0.0000000000
N       -0.8763359826    0.2669806066    0.0000000000
H        0.8631640302    0.2051219556    0.0000000000
3    
Image 6/11, Energy =   -92.8089031623 (+12.118 kcal/mol)
C        0.0195121358   -0.2373450034   -0.0000000000
N       -1.0377385707    0.1999664504    0.0000000000
H        1.0182264349    0.0373785530    0.0000000000
3    
Image 7/11, Energy =   -92.8281201957 (+0.059 kcal/mol)
C        0.0322641243   -0.0139475533   -0.0000000000
N       -1.1142517991   -0.0422615805    0.0000000000
H        1.0819876748    0.0562091338    0.0000000000
3    
Image 8/11, Energy =   -92.8280147161 (+0.126 kcal/mol)
C        0.0161307311    0.0361647879   -0.0000000000
N       -0.9878169383   -0.5126500170    0.0000000000
H        0.9716862072    0.4764852291   -0.0000000000
3    
Image 9/11, Energy =   -92.8282149805 (+0.000 kcal/mol)
C        0.0210470166    0.0223153438    0.0000000000
N       -0.7990347643   -0.7754244714   -0.0000000000
H        0.7779877476    0.7531091278   -0.0000000000
3    
Image 10/11, Energy =   -92.8275480229 (+0.419 kcal/mol)
C        0.0194260556    0.0213642891    0.0000000000
N       -0.7589320378   -0.8347584640    0.0000000000
H        0.7395059821    0.8133941749    0.0000000000
