3    
Image 0/11, Energy =   -92.8141878354 (+8.803 kcal/mol)
C       -0.7519862184   -0.8272338399    0.0000000000
N        0.0394753354    0.0434721365    0.0000000000
H        0.7125108830    0.7837617034    0.0000000000
3    
Image 1/11, Energy =   -92.8146213443 (+8.531 kcal/mol)
C       -0.5774532745   -0.9380798221    0.0000000000
N        0.0014690674    0.0727722687    0.0000000000
H        0.5759842071    0.8653075535   -0.0000000000
3    
Image 2/11, Energy =   -92.7980919944 (+18.903 kcal/mol)
C       -0.3649514656   -0.9637438833   -0.0000000000
N       -0.2238400614    0.2048823124   -0.0000000000
H        0.5887915270    0.7588615709   -0.0000000000
3    
Image 3/11, Energy =   -92.7684467687 (+37.506 kcal/mol)
C       -0.2366875404   -0.8837054503   -0.0000000000
N       -0.3795371962    0.2989797185    0.0000000000
H        0.6162247366    0.5847257317   -0.0000000000
3    
Image 4/11, Energy =   -92.7236060756 (+65.644 kcal/mol)
C       -0.0139026856   -0.6470206808   -0.0000000000
N       -0.6939950969    0.3255037982    0.0000000000
H        0.7078977826    0.3215168825   -0.0000000000
3    
Image 5/11, Energy =   -92.7508401530 (+48.554 kcal/mol)
C        0.0214399327   -0.4796920996   -0.0000000000
N       -0.8754400791    0.2622228105    0.0000000000
H        0.8540001464    0.2174692892   -0.0000000000
3    
Image 6/11, Energy =   -92.8089230813 (+12.106 kcal/mol)
C        0.0293748887   -0.2363701674   -0.0000000000
N       -1.0456963439    0.1517331650    0.0000000000
H        1.0163214552    0.0846370024   -0.0000000000
3    
Image 7/11, Energy =   -92.8281205013 (+0.060 kcal/mol)
C        0.0312110449   -0.0161320373   -0.0000000000
N       -1.1123456726   -0.0235757880   -0.0000000000
H        1.0811346277    0.0397078254   -0.0000000000
3    
Image 8/11, Energy =   -92.8282147870 (+0.001 kcal/mol)
C        0.0279928000    0.0126465440   -0.0000000000
N       -0.9981789090   -0.4928874893   -0.0000000000
H        0.9701861090    0.4802409454    0.0000000000
3    
Image 9/11, Energy =   -92.8282156559 (+0.000 kcal/mol)
C        0.0224812053    0.0205070626    0.0000000000
N       -0.8054170480   -0.7691461277   -0.0000000000
H        0.7829358427    0.7486390651   -0.0000000000
3    
Image 10/11, Energy =   -92.8275480229 (+0.419 kcal/mol)
C        0.0194260556    0.0213642891    0.0000000000
N       -0.7589320377   -0.8347584640    0.0000000000
H        0.7395059821    0.8133941749    0.0000000000
