3    
Image 0/11, Energy =   -92.8141878354 (+8.803 kcal/mol)
C       -0.7519862184   -0.8272338399    0.0000000000
N        0.0394753354    0.0434721365    0.0000000000
H        0.7125108830    0.7837617034    0.0000000000
3    
Image 1/11, Energy =   -92.8039613237 (+15.220 kcal/mol)
C       -0.4300205704   -0.9621717923   -0.0000000000
N       -0.1723157548    0.1815604803   -0.0000000000
H        0.6023363251    0.7806113120    0.0000000000
3    
Image 2/11, Energy =   -92.7723237589 (+35.073 kcal/mol)
C       -0.2623896689   -0.8937167045   -0.0000000000
N       -0.3557989374    0.2975109453   -0.0000000000
H        0.6181886062    0.5962057591    0.0000000000
3    
Image 3/11, Energy =   -92.7428851090 (+53.546 kcal/mol)
C       -0.1275457773   -0.7903771862   -0.0000000000
N       -0.4998342469    0.3478417825   -0.0000000000
H        0.6273800242    0.4425354037    0.0000000000
3    
Image 4/11, Energy =   -92.7236070667 (+65.643 kcal/mol)
C       -0.0249113469   -0.6467313277   -0.0000000000
N       -0.6892585109    0.3373227382   -0.0000000000
H        0.7141698578    0.3094085895    0.0000000000
3    
Image 5/11, Energy =   -92.7618714399 (+41.632 kcal/mol)
C        0.0158150246   -0.4393185236   -0.0000000000
N       -0.9058567142    0.2620782632   -0.0000000000
H        0.8900416896    0.1772402604    0.0000000000
3    
Image 6/11, Energy =   -92.8200507339 (+5.124 kcal/mol)
C        0.0258597473   -0.1560003644   -0.0000000000
N       -1.0765006388    0.1421813116   -0.0000000000
H        1.0506408915    0.0138190528    0.0000000000
3    
Image 7/11, Energy =   -92.8281970754 (+0.012 kcal/mol)
C        0.0317106836    0.0040607185    0.0000000000
N       -1.0818986274   -0.2674134628   -0.0000000000
H        1.0501879437    0.2633527443    0.0000000000
3    
Image 8/11, Energy =   -92.8282152908 (+0.000 kcal/mol)
C        0.0264881097    0.0152703858    0.0000000000
N       -0.9828042658   -0.5232366136    0.0000000000
H        0.9563161561    0.5079662279    0.0000000000
3    
Image 9/11, Energy =   -92.8282158187 (+0.000 kcal/mol)
C        0.0235918575    0.0192599684    0.0000000000
N       -0.8615339848   -0.7057764888    0.0000000000
H        0.8379421273    0.6865165204   -0.0000000000
3    
Image 10/11, Energy =   -92.8275480229 (+0.419 kcal/mol)
C        0.0194260556    0.0213642891    0.0000000000
N       -0.7589320377   -0.8347584640    0.0000000000
H        0.7395059821    0.8133941749    0.0000000000
