3    
Image 0/11, Energy =   -92.8141878354 (+8.802 kcal/mol)
C       -0.7519862184   -0.8272338399    0.0000000000
N        0.0394753354    0.0434721365    0.0000000000
H        0.7125108830    0.7837617034    0.0000000000
3    
Image 1/11, Energy =   -92.8039505916 (+15.226 kcal/mol)
C       -0.4309381766   -0.9619621698   -0.0000000000
N       -0.1725245002    0.1818083471   -0.0000000000
H        0.6034626768    0.7801538227    0.0000000000
3    
Image 2/11, Energy =   -92.7751613460 (+33.292 kcal/mol)
C       -0.2818139909   -0.8985972562   -0.0000000000
N       -0.3439908630    0.2885899205   -0.0000000000
H        0.6258048539    0.6100073357    0.0000000000
3    
Image 3/11, Energy =   -92.7236065530 (+65.643 kcal/mol)
C       -0.0251200783   -0.6484114251   -0.0000000000
N       -0.6857982084    0.3380605222   -0.0000000000
H        0.7109182866    0.3103509029    0.0000000000
3    
Image 4/11, Energy =   -92.7571325747 (+44.605 kcal/mol)
C        0.0136876789   -0.4563388819   -0.0000000000
N       -0.8904239421    0.2701605771   -0.0000000000
H        0.8767362631    0.1861783048    0.0000000000
3    
Image 5/11, Energy =   -92.8247308353 (+2.187 kcal/mol)
C        0.0340391387   -0.1012748303   -0.0000000000
N       -1.0987081597    0.0635337479   -0.0000000000
H        1.0646690211    0.0377410824    0.0000000000
3    
Image 6/11, Energy =   -92.8279799503 (+0.148 kcal/mol)
C        0.0361682709   -0.0149948069   -0.0000000000
N       -1.0864636763   -0.2595625179   -0.0000000000
H        1.0502954054    0.2745573248    0.0000000000
3    
Image 7/11, Energy =   -92.8282152908 (+0.000 kcal/mol)
C        0.0264881097    0.0152703858    0.0000000000
N       -0.9828042658   -0.5232366136    0.0000000000
H        0.9563161561    0.5079662279    0.0000000000
3    
Image 8/11, Energy =   -92.8282139126 (+0.001 kcal/mol)
C        0.0219226975    0.0205247478    0.0000000000
N       -0.8052271633   -0.7688295832    0.0000000000
H        0.7833044658    0.7483048354   -0.0000000000
3    
Image 9/11, Energy =   -92.8282043605 (+0.007 kcal/mol)
C        0.0243079012    0.0201341734    0.0000000000
N       -0.9459201719   -0.5886876187    0.0000000000
H        0.9216122708    0.5685534454   -0.0000000000
3    
Image 10/11, Energy =   -92.8275480229 (+0.419 kcal/mol)
C        0.0194260556    0.0213642891    0.0000000000
N       -0.7589320377   -0.8347584640    0.0000000000
H        0.7395059821    0.8133941749    0.0000000000
