3    
Image 0/11, Energy =   -92.8141878354 (+8.803 kcal/mol)
C       -0.7519862184   -0.8272338399    0.0000000000
N        0.0394753354    0.0434721365    0.0000000000
H        0.7125108830    0.7837617034    0.0000000000
3    
Image 1/11, Energy =   -92.8039578658 (+15.222 kcal/mol)
C       -0.4307988605   -0.9617420148   -0.0000000000
N       -0.1725253377    0.1814344859   -0.0000000000
H        0.6033241983    0.7803075289    0.0000000000
3    
Image 2/11, Energy =   -92.7727401640 (+34.811 kcal/mol)
C       -0.2696585905   -0.8908343588   -0.0000000000
N       -0.3558296257    0.2907293708   -0.0000000000
H        0.6254882162    0.6001049880    0.0000000000
3    
Image 3/11, Energy =   -92.7318963887 (+60.441 kcal/mol)
C       -0.1465734317   -0.7665037431   -0.0000000000
N       -0.5245899239    0.3132776867   -0.0000000000
H        0.6711633556    0.4532260564    0.0000000000
3    
Image 4/11, Energy =   -92.7236314985 (+65.628 kcal/mol)
C       -0.0234882729   -0.6421731274   -0.0000000000
N       -0.6933502221    0.3358260026   -0.0000000000
H        0.7168384950    0.3063471249    0.0000000000
3    
Image 5/11, Energy =   -92.7616729157 (+41.756 kcal/mol)
C        0.0155861307   -0.4399374397   -0.0000000000
N       -0.9049552742    0.2634291546   -0.0000000000
H        0.8893691434    0.1765082850    0.0000000000
3    
Image 6/11, Energy =   -92.8201596458 (+5.055 kcal/mol)
C        0.0249891892   -0.1551405164   -0.0000000000
N       -1.0762738570    0.1456072473   -0.0000000000
H        1.0512846678    0.0095332691    0.0000000000
3    
Image 7/11, Energy =   -92.8282006318 (+0.010 kcal/mol)
C        0.0296627659    0.0023581034    0.0000000000
N       -1.0810197192   -0.2683332181   -0.0000000000
H        1.0513569532    0.2659751146    0.0000000000
3    
Image 8/11, Energy =   -92.8282152908 (+0.000 kcal/mol)
C        0.0264881097    0.0152703858    0.0000000000
N       -0.9828042658   -0.5232366136    0.0000000000
H        0.9563161561    0.5079662279    0.0000000000
3    
Image 9/11, Energy =   -92.8282158187 (+0.000 kcal/mol)
C        0.0235918575    0.0192599684    0.0000000000
N       -0.8615339848   -0.7057764888    0.0000000000
H        0.8379421273    0.6865165204   -0.0000000000
3    
Image 10/11, Energy =   -92.8275480229 (+0.419 kcal/mol)
C        0.0194260556    0.0213642891    0.0000000000
N       -0.7589320377   -0.8347584640    0.0000000000
H        0.7395059821    0.8133941749    0.0000000000
