3    
Image 0/11, Energy =   -92.8141878354 (+8.802 kcal/mol)
C       -0.7519862184   -0.8272338399    0.0000000000
N        0.0394753354    0.0434721365    0.0000000000
H        0.7125108830    0.7837617034    0.0000000000
3    
Image 1/11, Energy =   -92.8110725663 (+10.757 kcal/mol)
C       -0.6652728109   -0.8560095912    0.0000000000
N       -0.0655341355    0.1445956406   -0.0000000000
H        0.7308069465    0.7114139505   -0.0000000000
3    
Image 2/11, Energy =   -92.7899216974 (+24.029 kcal/mol)
C       -0.4485158081   -0.8925497032   -0.0000000000
N       -0.2414035170    0.2712680299    0.0000000000
H        0.6899193250    0.6212816732    0.0000000000
3    
Image 3/11, Energy =   -92.7691122019 (+37.088 kcal/mol)
C       -0.2886318902   -0.8705112359   -0.0000000000
N       -0.3568207709    0.3199034755    0.0000000000
H        0.6454526611    0.5506077604    0.0000000000
3    
Image 4/11, Energy =   -92.7322553627 (+60.216 kcal/mol)
C       -0.0631642185   -0.7333143641   -0.0000000000
N       -0.5678017140    0.3464328055    0.0000000000
H        0.6309659325    0.3868815586    0.0000000000
3    
Image 5/11, Energy =   -92.7520008508 (+47.825 kcal/mol)
C        0.0176770577   -0.4767760300   -0.0000000000
N       -0.8783591957    0.2667994645    0.0000000000
H        0.8606821381    0.2099765656    0.0000000000
3    
Image 6/11, Energy =   -92.8014545253 (+16.792 kcal/mol)
C        0.0342056675   -0.2780921665    0.0000000000
N       -1.0289338363    0.1456545692    0.0000000000
H        0.9947281688    0.1324375973    0.0000000000
3    
Image 7/11, Energy =   -92.8238665387 (+2.729 kcal/mol)
C        0.0451368884   -0.1102402162   -0.0000000000
N       -1.0965120522   -0.0806775476   -0.0000000000
H        1.0513751638    0.1909177637   -0.0000000000
3    
Image 8/11, Energy =   -92.8281158947 (+0.062 kcal/mol)
C        0.0354827569   -0.0002636933   -0.0000000000
N       -0.9937303792   -0.5049208636    0.0000000000
H        0.9582476222    0.5051845568   -0.0000000000
3    
Image 9/11, Energy =   -92.8282149805 (+0.000 kcal/mol)
C        0.0210470166    0.0223153438    0.0000000000
N       -0.7990347643   -0.7754244714   -0.0000000000
H        0.7779877476    0.7531091278   -0.0000000000
3    
Image 10/11, Energy =   -92.8275480229 (+0.419 kcal/mol)
C        0.0194260556    0.0213642891    0.0000000000
N       -0.7589320378   -0.8347584640    0.0000000000
H        0.7395059821    0.8133941749    0.0000000000
