3    
Image 0/11, Energy =   -92.8141878354 (+8.798 kcal/mol)
C       -0.7519862184   -0.8272338399    0.0000000000
N        0.0394753354    0.0434721365    0.0000000000
H        0.7125108830    0.7837617034    0.0000000000
3    
Image 1/11, Energy =   -92.8115031365 (+10.482 kcal/mol)
C       -0.6512714556   -0.8705304791    0.0000000000
N       -0.0630719868    0.1380132867    0.0000000000
H        0.7143434424    0.7325171924   -0.0000000000
3    
Image 2/11, Energy =   -92.7939213199 (+21.515 kcal/mol)
C       -0.4172991313   -0.9257708999   -0.0000000000
N       -0.2340593886    0.2416470266    0.0000000000
H        0.6513585199    0.6841238733   -0.0000000000
3    
Image 3/11, Energy =   -92.7696882876 (+36.721 kcal/mol)
C       -0.2486104413   -0.8852176910   -0.0000000000
N       -0.3695299853    0.3006716031    0.0000000000
H        0.6181404266    0.5845460879   -0.0000000000
3    
Image 4/11, Energy =   -92.7321214342 (+60.295 kcal/mol)
C       -0.0570477711   -0.7347035068   -0.0000000000
N       -0.5749616658    0.3383385392    0.0000000000
H        0.6320094370    0.3963649676   -0.0000000000
3    
Image 5/11, Energy =   -92.7501813798 (+48.962 kcal/mol)
C        0.0135337360   -0.4811604569   -0.0000000000
N       -0.8694600235    0.2690923239    0.0000000000
H        0.8559262875    0.2120681330   -0.0000000000
3    
Image 6/11, Energy =   -92.8090616108 (+12.014 kcal/mol)
C        0.0289434009   -0.2358180197   -0.0000000000
N       -1.0465464328    0.1478230032   -0.0000000000
H        1.0176030319    0.0879950165   -0.0000000000
3    
Image 7/11, Energy =   -92.8268061226 (+0.879 kcal/mol)
C        0.0337366768   -0.0628638416    0.0000000000
N       -1.1075364780   -0.0559889403   -0.0000000000
H        1.0737998012    0.1188527819   -0.0000000000
3    
Image 8/11, Energy =   -92.8282011467 (+0.004 kcal/mol)
C        0.0245910600    0.0192619713   -0.0000000000
N       -0.9953662914   -0.5010719232   -0.0000000000
H        0.9707752314    0.4818099519    0.0000000000
3    
Image 9/11, Energy =   -92.8282075916 (+0.000 kcal/mol)
C        0.0224828016    0.0204413847    0.0000000000
N       -0.8026357591   -0.7698471951   -0.0000000000
H        0.7801529575    0.7494058104   -0.0000000000
3    
Image 10/11, Energy =   -92.8275480229 (+0.414 kcal/mol)
C        0.0194260556    0.0213642891    0.0000000000
N       -0.7589320377   -0.8347584640    0.0000000000
H        0.7395059821    0.8133941749    0.0000000000
