3    
Image 0/11, Energy =   -92.8141878354 (+8.802 kcal/mol)
C       -0.7519862184   -0.8272338399    0.0000000000
N        0.0394753354    0.0434721365    0.0000000000
H        0.7125108830    0.7837617034    0.0000000000
3    
Image 1/11, Energy =   -92.8139266817 (+8.966 kcal/mol)
C       -0.6257252644   -0.9015923858    0.0000000000
N       -0.0216310401    0.0904476342   -0.0000000000
H        0.6473563044    0.8111447516    0.0000000000
3    
Image 2/11, Energy =   -92.7985073311 (+18.642 kcal/mol)
C       -0.3472749265   -0.9715105017   -0.0000000000
N       -0.2257917624    0.1973415213    0.0000000000
H        0.5730666889    0.7741689803    0.0000000000
3    
Image 3/11, Energy =   -92.7726789145 (+34.849 kcal/mol)
C       -0.2305828649   -0.9013036898    0.0000000000
N       -0.3676378785    0.2762211480    0.0000000000
H        0.5982207434    0.6250825418    0.0000000000
3    
Image 4/11, Energy =   -92.7240226830 (+65.382 kcal/mol)
C       -0.0042953567   -0.6227308959   -0.0000000000
N       -0.7156844268    0.3222504309    0.0000000000
H        0.7199797835    0.3004804650    0.0000000000
3    
Image 5/11, Energy =   -92.7531512232 (+47.103 kcal/mol)
C        0.0274081202   -0.4706569433    0.0000000000
N       -0.8859664923    0.2485956920    0.0000000000
H        0.8585583721    0.2220612513    0.0000000000
3    
Image 6/11, Energy =   -92.8090881187 (+12.002 kcal/mol)
C        0.0299677344   -0.2357043733   -0.0000000000
N       -1.0467304715    0.1543470824    0.0000000000
H        1.0167627371    0.0813572909    0.0000000000
3    
Image 7/11, Energy =   -92.8281829670 (+0.020 kcal/mol)
C        0.0321171975   -0.0070971710   -0.0000000000
N       -1.1122912475   -0.0373321664    0.0000000000
H        1.0801740499    0.0444293374    0.0000000000
3    
Image 8/11, Energy =   -92.8281815829 (+0.021 kcal/mol)
C        0.0321242864    0.0066078554    0.0000000000
N       -0.9957655572   -0.4996942239    0.0000000000
H        0.9636412709    0.4930863685   -0.0000000000
3    
Image 9/11, Energy =   -92.8282149805 (+0.000 kcal/mol)
C        0.0210470166    0.0223153438    0.0000000000
N       -0.7990347643   -0.7754244714   -0.0000000000
H        0.7779877476    0.7531091278   -0.0000000000
3    
Image 10/11, Energy =   -92.8275480229 (+0.419 kcal/mol)
C        0.0194260556    0.0213642891    0.0000000000
N       -0.7589320378   -0.8347584640    0.0000000000
H        0.7395059821    0.8133941749    0.0000000000
