3    
Image 0/11, Energy =   -92.8141878354 (+8.384 kcal/mol)
C       -0.7519862184   -0.8272338399    0.0000000000
N        0.0394753354    0.0434721365    0.0000000000
H        0.7125108830    0.7837617034    0.0000000000
3    
Image 1/11, Energy =   -92.8077524392 (+12.422 kcal/mol)
C       -0.6791031754   -0.8651440359    0.0000000000
N       -0.0939539324    0.1536555212    0.0000000000
H        0.7730571078    0.7114885147    0.0000000000
3    
Image 2/11, Energy =   -92.7831363730 (+27.869 kcal/mol)
C       -0.5104421971   -0.8320762423    0.0000000000
N       -0.2350198521    0.3302506037    0.0000000000
H        0.7454620492    0.5018256387    0.0000000000
3    
Image 3/11, Energy =   -92.7470710927 (+50.500 kcal/mol)
C       -0.3285125678   -0.7623933809    0.0000000000
N       -0.4002709202    0.4323311431    0.0000000000
H        0.7287834879    0.3300622377    0.0000000000
3    
Image 4/11, Energy =   -92.6315141936 (+123.013 kcal/mol)
C       -0.2731765562   -0.7340398329    0.0000000000
N       -0.6259643404    0.2548425906    0.0000000000
H        0.8991408966    0.4791972423    0.0000000000
3    
Image 5/11, Energy =   -92.7368871551 (+56.891 kcal/mol)
C        0.0377886419   -0.4850569788    0.0000000000
N       -0.8327766523    0.2299224855    0.0000000000
H        0.7949880104    0.2551344933    0.0000000000
3    
Image 6/11, Energy =   -92.7838622357 (+27.413 kcal/mol)
C        0.1608932366   -0.2858093870    0.0000000000
N       -1.0340603966   -0.1303628281    0.0000000000
H        0.8731671601    0.4161722150    0.0000000000
3    
Image 7/11, Energy =   -92.8133292507 (+8.922 kcal/mol)
C        0.1099359927   -0.1583591901    0.0000000000
N       -0.9682848352   -0.4573134262    0.0000000000
H        0.8583488425    0.6156726163    0.0000000000
3    
Image 8/11, Energy =   -92.8071857953 (+12.777 kcal/mol)
C        0.0589787488   -0.0309089931    0.0000000000
N       -0.9025092739   -0.7842640244    0.0000000000
H        0.8435305250    0.8151730176    0.0000000000
3    
Image 9/11, Energy =   -92.6996148628 (+80.279 kcal/mol)
C        0.0703371899   -0.1446248369    0.0000000000
N       -0.8509826154   -0.4529597272    0.0000000000
H        0.7806454255    0.5975845641    0.0000000000
3    
Image 10/11, Energy =   -92.8275480229 (+0.000 kcal/mol)
C        0.0194260556    0.0213642891    0.0000000000
N       -0.7589320378   -0.8347584640    0.0000000000
H        0.7395059821    0.8133941749    0.0000000000
