3    
Image 0/11, Energy =   -92.8141878354 (+8.803 kcal/mol)
C       -0.7519862184   -0.8272338399    0.0000000000
N        0.0394753354    0.0434721365    0.0000000000
H        0.7125108830    0.7837617034    0.0000000000
3    
Image 1/11, Energy =   -92.8039636064 (+15.218 kcal/mol)
C       -0.4306304227   -0.9620410388   -0.0000000000
N       -0.1724318629    0.1815998227   -0.0000000000
H        0.6030622856    0.7804412162    0.0000000000
3    
Image 2/11, Energy =   -92.7722402799 (+35.125 kcal/mol)
C       -0.2646411811   -0.8892345045   -0.0000000000
N       -0.3561216162    0.2930695418   -0.0000000000
H        0.6207627973    0.5961649626    0.0000000000
3    
Image 3/11, Energy =   -92.7425631734 (+53.748 kcal/mol)
C       -0.1318753325   -0.7853836915   -0.0000000000
N       -0.4994109220    0.3413288795   -0.0000000000
H        0.6312862545    0.4440548120    0.0000000000
3    
Image 4/11, Energy =   -92.7236096032 (+65.641 kcal/mol)
C       -0.0249290025   -0.6458223563   -0.0000000000
N       -0.6902251819    0.3368075977   -0.0000000000
H        0.7151541844    0.3090147586    0.0000000000
3    
Image 5/11, Energy =   -92.7618170092 (+41.666 kcal/mol)
C        0.0151399966   -0.4392089724   -0.0000000000
N       -0.9052157094    0.2621393386   -0.0000000000
H        0.8900757128    0.1770696337    0.0000000000
3    
Image 6/11, Energy =   -92.8200875281 (+5.101 kcal/mol)
C        0.0257941414   -0.1556932319   -0.0000000000
N       -1.0765114879    0.1433802410   -0.0000000000
H        1.0507173465    0.0123129909    0.0000000000
3    
Image 7/11, Energy =   -92.8281181112 (+0.061 kcal/mol)
C        0.0336520486    0.0040054806    0.0000000000
N       -1.0833306280   -0.2676396807   -0.0000000000
H        1.0496785793    0.2636342000    0.0000000000
3    
Image 8/11, Energy =   -92.8282152908 (+0.000 kcal/mol)
C        0.0264881097    0.0152703858    0.0000000000
N       -0.9828042658   -0.5232366136    0.0000000000
H        0.9563161561    0.5079662279    0.0000000000
3    
Image 9/11, Energy =   -92.8282158187 (+0.000 kcal/mol)
C        0.0235918575    0.0192599684    0.0000000000
N       -0.8615339848   -0.7057764888    0.0000000000
H        0.8379421273    0.6865165204   -0.0000000000
3    
Image 10/11, Energy =   -92.8275480229 (+0.419 kcal/mol)
C        0.0194260556    0.0213642891    0.0000000000
N       -0.7589320377   -0.8347584640    0.0000000000
H        0.7395059821    0.8133941749    0.0000000000
