3    
Image 0/11, Energy =   -92.8141878354 (+8.803 kcal/mol)
C       -0.7519862184   -0.8272338399    0.0000000000
N        0.0394753354    0.0434721365    0.0000000000
H        0.7125108830    0.7837617034    0.0000000000
3    
Image 1/11, Energy =   -92.8147346631 (+8.459 kcal/mol)
C       -0.5609319494   -0.9493563795    0.0000000000
N        0.0079160903    0.0676472106    0.0000000000
H        0.5530158591    0.8817091689   -0.0000000000
3    
Image 2/11, Energy =   -92.7981222064 (+18.884 kcal/mol)
C       -0.3772744899   -0.9592554988   -0.0000000000
N       -0.2214100201    0.2074351507    0.0000000000
H        0.5986845100    0.7518203481   -0.0000000000
3    
Image 3/11, Energy =   -92.7676486610 (+38.006 kcal/mol)
C       -0.2362182506   -0.8805657841   -0.0000000000
N       -0.3823002414    0.3020045585    0.0000000000
H        0.6185184920    0.5785612257   -0.0000000000
3    
Image 4/11, Energy =   -92.7236065286 (+65.643 kcal/mol)
C       -0.0146737890   -0.6489577113   -0.0000000000
N       -0.6918267798    0.3261886017    0.0000000000
H        0.7065005689    0.3227691096   -0.0000000000
3    
Image 5/11, Energy =   -92.7508553860 (+48.544 kcal/mol)
C        0.0211180173   -0.4797960243   -0.0000000000
N       -0.8754720849    0.2625125221    0.0000000000
H        0.8543540676    0.2172835022   -0.0000000000
3    
Image 6/11, Energy =   -92.8089230813 (+12.106 kcal/mol)
C        0.0293748887   -0.2363701674   -0.0000000000
N       -1.0456963439    0.1517331650    0.0000000000
H        1.0163214552    0.0846370024   -0.0000000000
3    
Image 7/11, Energy =   -92.8281205013 (+0.060 kcal/mol)
C        0.0312110449   -0.0161320373   -0.0000000000
N       -1.1123456726   -0.0235757880   -0.0000000000
H        1.0811346277    0.0397078254   -0.0000000000
3    
Image 8/11, Energy =   -92.8282147870 (+0.001 kcal/mol)
C        0.0279928000    0.0126465440   -0.0000000000
N       -0.9981789090   -0.4928874893   -0.0000000000
H        0.9701861090    0.4802409454    0.0000000000
3    
Image 9/11, Energy =   -92.8282156559 (+0.000 kcal/mol)
C        0.0224812053    0.0205070626    0.0000000000
N       -0.8054170480   -0.7691461277   -0.0000000000
H        0.7829358427    0.7486390651   -0.0000000000
3    
Image 10/11, Energy =   -92.8275480229 (+0.419 kcal/mol)
C        0.0194260556    0.0213642891    0.0000000000
N       -0.7589320377   -0.8347584640    0.0000000000
H        0.7395059821    0.8133941749    0.0000000000
