3    
Image 0/11, Energy =   -92.8141878354 (+8.803 kcal/mol)
C       -0.7519862184   -0.8272338399    0.0000000000
N        0.0394753354    0.0434721365    0.0000000000
H        0.7125108830    0.7837617034    0.0000000000
3    
Image 1/11, Energy =   -92.8131666237 (+9.443 kcal/mol)
C       -0.6269173895   -0.8961708867    0.0000000000
N       -0.0401269315    0.1078264091    0.0000000000
H        0.6670443210    0.7883444776   -0.0000000000
3    
Image 2/11, Energy =   -92.7970416274 (+19.562 kcal/mol)
C       -0.3673623059   -0.9575276094   -0.0000000000
N       -0.2298100912    0.2099749859    0.0000000000
H        0.5971723971    0.7475526235   -0.0000000000
3    
Image 3/11, Energy =   -92.7702679483 (+36.363 kcal/mol)
C       -0.2250474695   -0.8947605176   -0.0000000000
N       -0.3766521230    0.2884235814    0.0000000000
H        0.6016995926    0.6063369362   -0.0000000000
3    
Image 4/11, Energy =   -92.7238102274 (+65.515 kcal/mol)
C       -0.0142588419   -0.6596553461   -0.0000000000
N       -0.6721608989    0.3303047020    0.0000000000
H        0.6864197409    0.3293506441   -0.0000000000
3    
Image 5/11, Energy =   -92.7502738965 (+48.909 kcal/mol)
C        0.0221975650   -0.4810541329   -0.0000000000
N       -0.8734542396    0.2611901418    0.0000000000
H        0.8512566747    0.2198639911   -0.0000000000
3    
Image 6/11, Energy =   -92.8101713191 (+11.323 kcal/mol)
C        0.0279137586   -0.2288321723   -0.0000000000
N       -1.0480739275    0.1572209066    0.0000000000
H        1.0201601689    0.0716112656   -0.0000000000
3    
Image 7/11, Energy =   -92.8280116339 (+0.128 kcal/mol)
C        0.0319699603   -0.0234230411   -0.0000000000
N       -1.1111687551   -0.0353494179   -0.0000000000
H        1.0791987948    0.0587724590   -0.0000000000
3    
Image 8/11, Energy =   -92.8282076778 (+0.005 kcal/mol)
C        0.0256944585    0.0152836254   -0.0000000000
N       -0.9962471965   -0.4957509065   -0.0000000000
H        0.9705527379    0.4804672810    0.0000000000
3    
Image 9/11, Energy =   -92.8282156559 (+0.000 kcal/mol)
C        0.0224812053    0.0205070626    0.0000000000
N       -0.8054170480   -0.7691461277   -0.0000000000
H        0.7829358427    0.7486390651   -0.0000000000
3    
Image 10/11, Energy =   -92.8275480229 (+0.419 kcal/mol)
C        0.0194260556    0.0213642891    0.0000000000
N       -0.7589320377   -0.8347584640    0.0000000000
H        0.7395059821    0.8133941749    0.0000000000
