3    
Image 0/11, Energy =   -92.8141878354 (+8.803 kcal/mol)
C       -0.7519862184   -0.8272338399    0.0000000000
N        0.0394753354    0.0434721365    0.0000000000
H        0.7125108830    0.7837617034    0.0000000000
3    
Image 1/11, Energy =   -92.8144038286 (+8.667 kcal/mol)
C       -0.5927700204   -0.9278816267    0.0000000000
N       -0.0085411221    0.0806274995    0.0000000000
H        0.6013111425    0.8472541273   -0.0000000000
3    
Image 2/11, Energy =   -92.7981368832 (+18.875 kcal/mol)
C       -0.3538204316   -0.9680050659   -0.0000000000
N       -0.2262177254    0.2017631489   -0.0000000000
H        0.5800381569    0.7662419170   -0.0000000000
3    
Image 3/11, Energy =   -92.7692410246 (+37.007 kcal/mol)
C       -0.2313564388   -0.8883736047   -0.0000000000
N       -0.3787573538    0.2934454571    0.0000000000
H        0.6101137926    0.5949281476   -0.0000000000
3    
Image 4/11, Energy =   -92.7235999473 (+65.647 kcal/mol)
C       -0.0120839765   -0.6485956189   -0.0000000000
N       -0.6913915197    0.3261902678    0.0000000000
H        0.7034754962    0.3224053511   -0.0000000000
3    
Image 5/11, Energy =   -92.7507583160 (+48.605 kcal/mol)
C        0.0217093900   -0.4797271010   -0.0000000000
N       -0.8751161965    0.2617594885    0.0000000000
H        0.8534068064    0.2179676125   -0.0000000000
3    
Image 6/11, Energy =   -92.8089957563 (+12.061 kcal/mol)
C        0.0291967531   -0.2360716545   -0.0000000000
N       -1.0459698682    0.1516991177    0.0000000000
H        1.0167731152    0.0843725368   -0.0000000000
3    
Image 7/11, Energy =   -92.8281361772 (+0.050 kcal/mol)
C        0.0309444933   -0.0147347352   -0.0000000000
N       -1.1125441085   -0.0239929481   -0.0000000000
H        1.0815996153    0.0387276833   -0.0000000000
3    
Image 8/11, Energy =   -92.8282147870 (+0.001 kcal/mol)
C        0.0279928000    0.0126465440   -0.0000000000
N       -0.9981789090   -0.4928874893   -0.0000000000
H        0.9701861090    0.4802409454    0.0000000000
3    
Image 9/11, Energy =   -92.8282156559 (+0.000 kcal/mol)
C        0.0224812053    0.0205070626    0.0000000000
N       -0.8054170480   -0.7691461277   -0.0000000000
H        0.7829358427    0.7486390651   -0.0000000000
3    
Image 10/11, Energy =   -92.8275480229 (+0.419 kcal/mol)
C        0.0194260556    0.0213642891    0.0000000000
N       -0.7589320377   -0.8347584640    0.0000000000
H        0.7395059821    0.8133941749    0.0000000000
