3    
Image 0/11, Energy =   -92.8141878354 (+8.803 kcal/mol)
C       -0.7519862184   -0.8272338399    0.0000000000
N        0.0394753354    0.0434721365    0.0000000000
H        0.7125108830    0.7837617034    0.0000000000
3    
Image 1/11, Energy =   -92.8147745277 (+8.434 kcal/mol)
C       -0.5866154511   -0.9333345268    0.0000000000
N        0.0139666695    0.0651680535   -0.0000000000
H        0.5726487816    0.8681664733    0.0000000000
3    
Image 2/11, Energy =   -92.7984848221 (+18.656 kcal/mol)
C       -0.3812521688   -0.9595202915   -0.0000000000
N       -0.2184212381    0.2065469718    0.0000000000
H        0.5996734070    0.7529733197    0.0000000000
3    
Image 3/11, Energy =   -92.7715956018 (+35.530 kcal/mol)
C       -0.2594768273   -0.8907029393   -0.0000000000
N       -0.3623937537    0.2954082484    0.0000000000
H        0.6218705810    0.5952946909    0.0000000000
3    
Image 4/11, Energy =   -92.7236058663 (+65.644 kcal/mol)
C       -0.0156962228   -0.6475653697   -0.0000000000
N       -0.6930069939    0.3276794680    0.0000000000
H        0.7087032166    0.3198859017    0.0000000000
3    
Image 5/11, Energy =   -92.7536393253 (+46.797 kcal/mol)
C        0.0209262387   -0.4693285290   -0.0000000000
N       -0.8841553753    0.2599658151    0.0000000000
H        0.8632291366    0.2093627139    0.0000000000
3    
Image 6/11, Energy =   -92.8087401316 (+12.221 kcal/mol)
C        0.0290269769   -0.2376738405   -0.0000000000
N       -1.0451726280    0.1531859590    0.0000000000
H        1.0161456511    0.0844878815    0.0000000000
3    
Image 7/11, Energy =   -92.8281500556 (+0.041 kcal/mol)
C        0.0310346339   -0.0133121427   -0.0000000000
N       -1.1128178667   -0.0278594146    0.0000000000
H        1.0817832329    0.0411715573    0.0000000000
3    
Image 8/11, Energy =   -92.8282157392 (+0.000 kcal/mol)
C        0.0269857428    0.0140077305    0.0000000000
N       -0.9937948371   -0.5024305910    0.0000000000
H        0.9668090943    0.4884228605   -0.0000000000
3    
Image 9/11, Energy =   -92.8282149805 (+0.000 kcal/mol)
C        0.0210470166    0.0223153438    0.0000000000
N       -0.7990347643   -0.7754244714   -0.0000000000
H        0.7779877476    0.7531091278   -0.0000000000
3    
Image 10/11, Energy =   -92.8275480229 (+0.419 kcal/mol)
C        0.0194260556    0.0213642891    0.0000000000
N       -0.7589320378   -0.8347584640    0.0000000000
H        0.7395059821    0.8133941749    0.0000000000
