3    
Image 0/11, Energy =   -92.8141878354 (+8.763 kcal/mol)
C       -0.7519862184   -0.8272338399    0.0000000000
N        0.0394753354    0.0434721365    0.0000000000
H        0.7125108830    0.7837617034    0.0000000000
3    
Image 1/11, Energy =   -92.8109561505 (+10.791 kcal/mol)
C       -0.6687277948   -0.8529704414    0.0000000000
N       -0.0665449994    0.1464858328    0.0000000000
H        0.7352727942    0.7064846086   -0.0000000000
3    
Image 2/11, Energy =   -92.7881668683 (+25.092 kcal/mol)
C       -0.4635188982   -0.8770401820   -0.0000000000
N       -0.2416786259    0.2855780730    0.0000000000
H        0.7051975241    0.5914621090   -0.0000000000
3    
Image 3/11, Energy =   -92.7666526839 (+38.592 kcal/mol)
C       -0.2957056568   -0.8567926892   -0.0000000000
N       -0.3596876477    0.3336622943    0.0000000000
H        0.6553933045    0.5231303949   -0.0000000000
3    
Image 4/11, Energy =   -92.7320085677 (+60.332 kcal/mol)
C       -0.0712483971   -0.7327789845   -0.0000000000
N       -0.5686196185    0.3506463642    0.0000000000
H        0.6398680156    0.3821326203   -0.0000000000
3    
Image 5/11, Energy =   -92.7502833046 (+48.864 kcal/mol)
C        0.0198240228   -0.4815724655    0.0000000000
N       -0.8727366584    0.2641452335    0.0000000000
H        0.8529126356    0.2174272320   -0.0000000000
3    
Image 6/11, Energy =   -92.8014264671 (+16.771 kcal/mol)
C        0.0507734270   -0.2759880097   -0.0000000000
N       -1.0363274064    0.0966801252   -0.0000000000
H        0.9855539793    0.1793078845   -0.0000000000
3    
Image 7/11, Energy =   -92.8207476720 (+4.647 kcal/mol)
C        0.0569223247   -0.1428270220    0.0000000000
N       -1.0876972486   -0.0916927307   -0.0000000000
H        1.0307749239    0.2345197527   -0.0000000000
3    
Image 8/11, Energy =   -92.8277628345 (+0.245 kcal/mol)
C        0.0438275999   -0.0194355581   -0.0000000000
N       -0.9970315125   -0.4913332211   -0.0000000000
H        0.9532039126    0.5107687792    0.0000000000
3    
Image 9/11, Energy =   -92.8281533183 (+0.000 kcal/mol)
C        0.0220980926    0.0228769803    0.0000000000
N       -0.8039569910   -0.7757211380   -0.0000000000
H        0.7818588983    0.7528441577   -0.0000000000
3    
Image 10/11, Energy =   -92.8275480229 (+0.380 kcal/mol)
C        0.0194260556    0.0213642891    0.0000000000
N       -0.7589320377   -0.8347584640    0.0000000000
H        0.7395059821    0.8133941749    0.0000000000
