3    
Image 0/11, Energy =   -92.8141878354 (+8.769 kcal/mol)
C       -0.7519862184   -0.8272338399    0.0000000000
N        0.0394753354    0.0434721365    0.0000000000
H        0.7125108830    0.7837617034    0.0000000000
3    
Image 1/11, Energy =   -92.8109475874 (+10.803 kcal/mol)
C       -0.6718516209   -0.8518243427    0.0000000000
N       -0.0670081462    0.1469659445   -0.0000000000
H        0.7388597671    0.7048583982   -0.0000000000
3    
Image 2/11, Energy =   -92.7870311100 (+25.810 kcal/mol)
C       -0.4678234133   -0.8697777748    0.0000000000
N       -0.2432824504    0.2933329101   -0.0000000000
H        0.7111058637    0.5764448647    0.0000000000
3    
Image 3/11, Energy =   -92.7671935280 (+38.259 kcal/mol)
C       -0.3096087754   -0.8553183159   -0.0000000000
N       -0.3520132654    0.3388926852    0.0000000000
H        0.6616220408    0.5164256308    0.0000000000
3    
Image 4/11, Energy =   -92.7320805842 (+60.292 kcal/mol)
C       -0.0743947649   -0.7307836666   -0.0000000000
N       -0.5647572275    0.3508650408    0.0000000000
H        0.6391519924    0.3799186259    0.0000000000
3    
Image 5/11, Energy =   -92.7518403928 (+47.893 kcal/mol)
C        0.0237853405   -0.4733199916   -0.0000000000
N       -0.8776560144    0.2601106250    0.0000000000
H        0.8538706739    0.2132093666    0.0000000000
3    
Image 6/11, Energy =   -92.7975028521 (+19.239 kcal/mol)
C        0.0476879761   -0.2928076268    0.0000000000
N       -1.0208679464    0.1140091033    0.0000000000
H        0.9731799702    0.1787985234    0.0000000000
3    
Image 7/11, Energy =   -92.8199329896 (+5.164 kcal/mol)
C        0.0598655374   -0.1492534080   -0.0000000000
N       -1.0836862093   -0.0976613503   -0.0000000000
H        1.0238206720    0.2469147583   -0.0000000000
3    
Image 8/11, Energy =   -92.8275862623 (+0.362 kcal/mol)
C        0.0449813597   -0.0243613794   -0.0000000000
N       -0.9924151207   -0.4975527892    0.0000000000
H        0.9474337610    0.5219141686   -0.0000000000
3    
Image 9/11, Energy =   -92.8281625385 (+0.000 kcal/mol)
C        0.0176179101    0.0239715930    0.0000000000
N       -0.8011753207   -0.7788119667   -0.0000000000
H        0.7835574105    0.7548403739   -0.0000000000
3    
Image 10/11, Energy =   -92.8275480229 (+0.386 kcal/mol)
C        0.0194260556    0.0213642891    0.0000000000
N       -0.7589320378   -0.8347584640    0.0000000000
H        0.7395059821    0.8133941749    0.0000000000
