3    
Image 0/11, Energy =   -92.8141878354 (+8.803 kcal/mol)
C       -0.7519862184   -0.8272338399    0.0000000000
N        0.0394753354    0.0434721365    0.0000000000
H        0.7125108830    0.7837617034    0.0000000000
3    
Image 1/11, Energy =   -92.8039505916 (+15.227 kcal/mol)
C       -0.4309381766   -0.9619621698   -0.0000000000
N       -0.1725245002    0.1818083471   -0.0000000000
H        0.6034626768    0.7801538227    0.0000000000
3    
Image 2/11, Energy =   -92.7737905062 (+34.152 kcal/mol)
C       -0.2742614427   -0.8948517063   -0.0000000000
N       -0.3506896396    0.2910194938   -0.0000000000
H        0.6249510822    0.6038322125    0.0000000000
3    
Image 3/11, Energy =   -92.7236205101 (+65.635 kcal/mol)
C       -0.0241871226   -0.6440481577   -0.0000000000
N       -0.6919940493    0.3364484072   -0.0000000000
H        0.7161811719    0.3075997504    0.0000000000
3    
Image 4/11, Energy =   -92.7604570109 (+42.519 kcal/mol)
C        0.0159083043   -0.4444838968   -0.0000000000
N       -0.9017594230    0.2635913974   -0.0000000000
H        0.8858511187    0.1808924995    0.0000000000
3    
Image 5/11, Energy =   -92.8215471052 (+4.185 kcal/mol)
C        0.0257883203   -0.1412269347   -0.0000000000
N       -1.0809348201    0.1380628316   -0.0000000000
H        1.0551464997    0.0031641031    0.0000000000
3    
Image 6/11, Energy =   -92.8282109227 (+0.003 kcal/mol)
C        0.0308281702    0.0043029953   -0.0000000000
N       -1.0799833847   -0.2711561697   -0.0000000000
H        1.0491552145    0.2668531744    0.0000000000
3    
Image 7/11, Energy =   -92.8282152908 (+0.000 kcal/mol)
C        0.0264881097    0.0152703858    0.0000000000
N       -0.9828042658   -0.5232366136    0.0000000000
H        0.9563161561    0.5079662279    0.0000000000
3    
Image 8/11, Energy =   -92.8282158187 (+0.000 kcal/mol)
C        0.0235918575    0.0192599684    0.0000000000
N       -0.8615339848   -0.7057764888    0.0000000000
H        0.8379421273    0.6865165204   -0.0000000000
3    
Image 9/11, Energy =   -92.8282153621 (+0.000 kcal/mol)
C        0.0243859312    0.0178470543    0.0000000000
N       -0.8975924037   -0.6590659214    0.0000000000
H        0.8732064724    0.6412188671   -0.0000000000
3    
Image 10/11, Energy =   -92.8275480229 (+0.419 kcal/mol)
C        0.0194260556    0.0213642891    0.0000000000
N       -0.7589320377   -0.8347584640    0.0000000000
H        0.7395059821    0.8133941749    0.0000000000
