3    
Image 0/11, Energy =   -92.8141878354 (+8.801 kcal/mol)
C       -0.7519862184   -0.8272338399    0.0000000000
N        0.0394753354    0.0434721365    0.0000000000
H        0.7125108830    0.7837617034    0.0000000000
3    
Image 1/11, Energy =   -92.8113148621 (+10.604 kcal/mol)
C       -0.6552994146   -0.8658803371    0.0000000000
N       -0.0649541108    0.1405546219    0.0000000000
H        0.7202535253    0.7253257152   -0.0000000000
3    
Image 2/11, Energy =   -92.7928392378 (+22.197 kcal/mol)
C       -0.4275254595   -0.9156593363   -0.0000000000
N       -0.2367073716    0.2492346950    0.0000000000
H        0.6642328311    0.6664246413   -0.0000000000
3    
Image 3/11, Energy =   -92.7692031830 (+37.029 kcal/mol)
C       -0.2576259467   -0.8817301836   -0.0000000000
N       -0.3680136596    0.3078174298    0.0000000000
H        0.6256396063    0.5739127538   -0.0000000000
3    
Image 4/11, Energy =   -92.7320915597 (+60.317 kcal/mol)
C       -0.0576156288   -0.7358091271   -0.0000000000
N       -0.5745165295    0.3423943234    0.0000000000
H        0.6321321583    0.3934148036   -0.0000000000
3    
Image 5/11, Energy =   -92.7501577744 (+48.980 kcal/mol)
C        0.0177042580   -0.4845249736   -0.0000000000
N       -0.8727983580    0.2724647349    0.0000000000
H        0.8550941001    0.2120602386   -0.0000000000
3    
Image 6/11, Energy =   -92.8081483320 (+12.591 kcal/mol)
C        0.0304063593   -0.2408065602   -0.0000000000
N       -1.0450509139    0.1387760118   -0.0000000000
H        1.0146445547    0.1020305484   -0.0000000000
3    
Image 7/11, Energy =   -92.8260600501 (+1.351 kcal/mol)
C        0.0385036351   -0.0785661956    0.0000000000
N       -1.1067699669   -0.0618563371   -0.0000000000
H        1.0682663318    0.1404225327   -0.0000000000
3    
Image 8/11, Energy =   -92.8282127429 (+0.000 kcal/mol)
C        0.0270604486    0.0140035183   -0.0000000000
N       -0.9961474873   -0.5000187965   -0.0000000000
H        0.9690870387    0.4860152783    0.0000000000
3    
Image 9/11, Energy =   -92.8281737653 (+0.024 kcal/mol)
C        0.0213716521    0.0196838886    0.0000000000
N       -0.8011932244   -0.7698738504   -0.0000000000
H        0.7798215724    0.7501899618   -0.0000000000
3    
Image 10/11, Energy =   -92.8275480229 (+0.417 kcal/mol)
C        0.0194260556    0.0213642891    0.0000000000
N       -0.7589320377   -0.8347584640    0.0000000000
H        0.7395059821    0.8133941749    0.0000000000
