3    
Image 0/11, Energy =   -92.8141878354 (+8.664 kcal/mol)
C       -0.7519862184   -0.8272338399    0.0000000000
N        0.0394753354    0.0434721365    0.0000000000
H        0.7125108830    0.7837617034    0.0000000000
3    
Image 1/11, Energy =   -92.8109625608 (+10.688 kcal/mol)
C       -0.6759058766   -0.8469376988    0.0000000000
N       -0.0628646391    0.1474940083   -0.0000000000
H        0.7387705156    0.6994436906   -0.0000000000
3    
Image 2/11, Energy =   -92.7834498881 (+27.952 kcal/mol)
C       -0.4888645107   -0.8426393374    0.0000000000
N       -0.2468240878    0.3189234631   -0.0000000000
H        0.7356885985    0.5237158743   -0.0000000000
3    
Image 3/11, Energy =   -92.7637714143 (+40.301 kcal/mol)
C       -0.3358365991   -0.8349427820   -0.0000000000
N       -0.3553253773    0.3652271117   -0.0000000000
H        0.6911619763    0.4697156703   -0.0000000000
3    
Image 4/11, Energy =   -92.7309909935 (+60.871 kcal/mol)
C       -0.1044853790   -0.7353954227   -0.0000000000
N       -0.5702742912    0.3520129311    0.0000000000
H        0.6747596702    0.3833824916    0.0000000000
3    
Image 5/11, Energy =   -92.7510683632 (+48.272 kcal/mol)
C        0.0186169146   -0.4872662070    0.0000000000
N       -0.8878591655    0.2498605976    0.0000000000
H        0.8692422509    0.2374056095    0.0000000000
3    
Image 6/11, Energy =   -92.7722896553 (+34.955 kcal/mol)
C        0.1059322871   -0.3586209130    0.0000000000
N       -1.0380244828    0.0965503135   -0.0000000000
H        0.9320921957    0.2620705995    0.0000000000
3    
Image 7/11, Energy =   -92.8014064055 (+16.684 kcal/mol)
C        0.0441018357   -0.1947222025   -0.0000000000
N       -1.0374999282   -0.1329953656   -0.0000000000
H        0.9933980926    0.3277175680   -0.0000000000
3    
Image 8/11, Energy =   -92.8224959616 (+3.450 kcal/mol)
C        0.0864417233   -0.0566367531   -0.0000000000
N       -1.0100845107   -0.4831425474    0.0000000000
H        0.9236427874    0.5397793005   -0.0000000000
3    
Image 9/11, Energy =   -92.8279943898 (+0.000 kcal/mol)
C        0.0124599875    0.0291162725    0.0000000000
N       -0.7899524134   -0.7755740286   -0.0000000000
H        0.7774924257    0.7464577563   -0.0000000000
3    
Image 10/11, Energy =   -92.8275480229 (+0.280 kcal/mol)
C        0.0194260556    0.0213642891    0.0000000000
N       -0.7589320378   -0.8347584640    0.0000000000
H        0.7395059821    0.8133941749    0.0000000000
