3    
Image 0/11, Energy =   -92.8141878354 (+8.598 kcal/mol)
C       -0.7519862184   -0.8272338399    0.0000000000
N        0.0394753354    0.0434721365    0.0000000000
H        0.7125108830    0.7837617034    0.0000000000
3    
Image 1/11, Energy =   -92.8109494417 (+10.630 kcal/mol)
C       -0.6752605003   -0.8437280633    0.0000000000
N       -0.0604863839    0.1455708488   -0.0000000000
H        0.7357468841    0.6981572145   -0.0000000000
3    
Image 2/11, Energy =   -92.7829735475 (+28.186 kcal/mol)
C       -0.4899202100   -0.8402466596    0.0000000000
N       -0.2478834436    0.3219976547   -0.0000000000
H        0.7378036535    0.5182490049   -0.0000000000
3    
Image 3/11, Energy =   -92.7634063776 (+40.464 kcal/mol)
C       -0.3403841540   -0.8301653245   -0.0000000000
N       -0.3570552316    0.3642205172   -0.0000000000
H        0.6974393855    0.4659448073   -0.0000000000
3    
Image 4/11, Energy =   -92.7308929077 (+60.867 kcal/mol)
C       -0.1066191481   -0.7401993969   -0.0000000000
N       -0.5735031857    0.3557557161    0.0000000000
H        0.6801223338    0.3844436808    0.0000000000
3    
Image 5/11, Energy =   -92.7503813039 (+48.638 kcal/mol)
C        0.0120690982   -0.4908765077    0.0000000000
N       -0.8899770454    0.2469433192    0.0000000000
H        0.8779079472    0.2439331886    0.0000000000
3    
Image 6/11, Energy =   -92.7834446848 (+27.890 kcal/mol)
C        0.0791059875   -0.3573692346   -0.0000000000
N       -1.0108350324    0.0808762164   -0.0000000000
H        0.9317290449    0.2764930182   -0.0000000000
3    
Image 7/11, Energy =   -92.8116589598 (+10.185 kcal/mol)
C        0.0714776614   -0.2063466677   -0.0000000000
N       -1.0568488930   -0.1223355676   -0.0000000000
H        0.9853712317    0.3286822352   -0.0000000000
3    
Image 8/11, Energy =   -92.8251443352 (+1.723 kcal/mol)
C        0.0767009702   -0.0639914487   -0.0000000000
N       -0.9978491566   -0.4838475849    0.0000000000
H        0.9211481865    0.5478390336   -0.0000000000
3    
Image 9/11, Energy =   -92.8278901750 (+0.000 kcal/mol)
C        0.0154140392    0.0325695714    0.0000000000
N       -0.7892945642   -0.7729698333   -0.0000000000
H        0.7738805248    0.7404002621   -0.0000000000
3    
Image 10/11, Energy =   -92.8275480229 (+0.215 kcal/mol)
C        0.0194260556    0.0213642891    0.0000000000
N       -0.7589320378   -0.8347584640    0.0000000000
H        0.7395059821    0.8133941749    0.0000000000
