3    
Image 0/11, Energy =   -92.8141878354 (+8.578 kcal/mol)
C       -0.7519862184   -0.8272338399    0.0000000000
N        0.0394753354    0.0434721365    0.0000000000
H        0.7125108830    0.7837617034    0.0000000000
3    
Image 1/11, Energy =   -92.8109296219 (+10.622 kcal/mol)
C       -0.6734805258   -0.8490599453    0.0000000000
N       -0.0657657858    0.1473579314    0.0000000000
H        0.7392463116    0.7017020138    0.0000000000
3    
Image 2/11, Energy =   -92.7856208325 (+26.504 kcal/mol)
C       -0.4795487022   -0.8571459389   -0.0000000000
N       -0.2436022070    0.3043344150    0.0000000000
H        0.7231509093    0.5528115239   -0.0000000000
3    
Image 3/11, Energy =   -92.7648326963 (+39.548 kcal/mol)
C       -0.3147430052   -0.8432334081   -0.0000000000
N       -0.3570083601    0.3511869189    0.0000000000
H        0.6717513653    0.4920464892    0.0000000000
3    
Image 4/11, Energy =   -92.7317940092 (+60.280 kcal/mol)
C       -0.0839119398   -0.7352708397   -0.0000000000
N       -0.5697787190    0.3558757320    0.0000000000
H        0.6536906587    0.3793951077   -0.0000000000
3    
Image 5/11, Energy =   -92.7502497926 (+48.699 kcal/mol)
C        0.0230361594   -0.4832832406    0.0000000000
N       -0.8759049343    0.2578930148   -0.0000000000
H        0.8528687749    0.2253902259   -0.0000000000
3    
Image 6/11, Energy =   -92.7894704057 (+24.088 kcal/mol)
C        0.0400977777   -0.3039833236    0.0000000000
N       -1.0029548823    0.0701333532   -0.0000000000
H        0.9628571046    0.2338499704   -0.0000000000
3    
Image 7/11, Energy =   -92.8157699033 (+7.585 kcal/mol)
C        0.0595750841   -0.1759497262    0.0000000000
N       -1.0658699346   -0.1096239589   -0.0000000000
H        1.0062948506    0.2855736852   -0.0000000000
3    
Image 8/11, Energy =   -92.8268509017 (+0.631 kcal/mol)
C        0.0585698959   -0.0423621867   -0.0000000000
N       -0.9977450334   -0.4853494376   -0.0000000000
H        0.9391751375    0.5277116243    0.0000000000
3    
Image 9/11, Energy =   -92.8278570294 (+0.000 kcal/mol)
C        0.0153288965    0.0186323575    0.0000000000
N       -0.7976298488   -0.7719752794   -0.0000000000
H        0.7823009523    0.7533429219   -0.0000000000
3    
Image 10/11, Energy =   -92.8275480229 (+0.194 kcal/mol)
C        0.0194260556    0.0213642891    0.0000000000
N       -0.7589320377   -0.8347584640    0.0000000000
H        0.7395059821    0.8133941749    0.0000000000
