3    
Image 0/11, Energy =   -92.8141878354 (+8.803 kcal/mol)
C       -0.7519862184   -0.8272338399    0.0000000000
N        0.0394753354    0.0434721365    0.0000000000
H        0.7125108830    0.7837617034    0.0000000000
3    
Image 1/11, Energy =   -92.8137971842 (+9.048 kcal/mol)
C       -0.6154451562   -0.9089555556    0.0000000000
N       -0.0270533984    0.0954629352    0.0000000000
H        0.6424985546    0.8134926205   -0.0000000000
3    
Image 2/11, Energy =   -92.7978642509 (+19.046 kcal/mol)
C       -0.3496742303   -0.9694845863    0.0000000000
N       -0.2291596507    0.2029863463    0.0000000000
H        0.5788338809    0.7664982401   -0.0000000000
3    
Image 3/11, Energy =   -92.7701689442 (+36.425 kcal/mol)
C       -0.2218567085   -0.8935669088   -0.0000000000
N       -0.3786947063    0.2836929536    0.0000000000
H        0.6005514149    0.6098739552   -0.0000000000
3    
Image 4/11, Energy =   -92.7237509964 (+65.553 kcal/mol)
C       -0.0067931155   -0.6359609937   -0.0000000000
N       -0.7083405876    0.3233653858    0.0000000000
H        0.7151337030    0.3125956079   -0.0000000000
3    
Image 5/11, Energy =   -92.7503109832 (+48.886 kcal/mol)
C        0.0233630812   -0.4812636717   -0.0000000000
N       -0.8743057927    0.2608593372    0.0000000000
H        0.8509427115    0.2204043344   -0.0000000000
3    
Image 6/11, Energy =   -92.8099830572 (+11.441 kcal/mol)
C        0.0283692292   -0.2298041688   -0.0000000000
N       -1.0475797767    0.1572282152    0.0000000000
H        1.0192105475    0.0725759536   -0.0000000000
3    
Image 7/11, Energy =   -92.8281439639 (+0.045 kcal/mol)
C        0.0301656526   -0.0129640119   -0.0000000000
N       -1.1119798556   -0.0280110801   -0.0000000000
H        1.0818142030    0.0409750920   -0.0000000000
3    
Image 8/11, Energy =   -92.8282014482 (+0.009 kcal/mol)
C        0.0266007773    0.0128219925   -0.0000000000
N       -0.9969237262   -0.4933317044   -0.0000000000
H        0.9703229490    0.4805097120    0.0000000000
3    
Image 9/11, Energy =   -92.8282156559 (+0.000 kcal/mol)
C        0.0224812053    0.0205070626    0.0000000000
N       -0.8054170480   -0.7691461277   -0.0000000000
H        0.7829358427    0.7486390651   -0.0000000000
3    
Image 10/11, Energy =   -92.8275480229 (+0.419 kcal/mol)
C        0.0194260556    0.0213642891    0.0000000000
N       -0.7589320377   -0.8347584640    0.0000000000
H        0.7395059821    0.8133941749    0.0000000000
