3    
Image 0/11, Energy =   -92.8141878354 (+8.803 kcal/mol)
C       -0.7519862184   -0.8272338399    0.0000000000
N        0.0394753354    0.0434721365    0.0000000000
H        0.7125108830    0.7837617034    0.0000000000
3    
Image 1/11, Energy =   -92.8039636064 (+15.218 kcal/mol)
C       -0.4306304227   -0.9620410388   -0.0000000000
N       -0.1724318629    0.1815998227   -0.0000000000
H        0.6030622856    0.7804412162    0.0000000000
3    
Image 2/11, Energy =   -92.7722867790 (+35.096 kcal/mol)
C       -0.2656488962   -0.8946395947   -0.0000000000
N       -0.3582935153    0.2982497327   -0.0000000000
H        0.6239424116    0.5963898620    0.0000000000
3    
Image 3/11, Energy =   -92.7417455083 (+54.261 kcal/mol)
C       -0.1323705273   -0.7991703856   -0.0000000000
N       -0.5105939539    0.3506954798   -0.0000000000
H        0.6429644811    0.4484749058    0.0000000000
3    
Image 4/11, Energy =   -92.7236168221 (+65.637 kcal/mol)
C       -0.0243198745   -0.6450349130   -0.0000000000
N       -0.6919026765    0.3367898315   -0.0000000000
H        0.7162225509    0.3082450815    0.0000000000
3    
Image 5/11, Energy =   -92.7617415029 (+41.713 kcal/mol)
C        0.0155944040   -0.4397878476   -0.0000000000
N       -0.9053004811    0.2629343245   -0.0000000000
H        0.8897060771    0.1768535231    0.0000000000
3    
Image 6/11, Energy =   -92.8201246517 (+5.077 kcal/mol)
C        0.0252189337   -0.1552928512   -0.0000000000
N       -1.0761769229    0.1443331586   -0.0000000000
H        1.0509579891    0.0109596925    0.0000000000
3    
Image 7/11, Energy =   -92.8282047758 (+0.007 kcal/mol)
C        0.0299145128    0.0029963037    0.0000000000
N       -1.0803511978   -0.2680823586   -0.0000000000
H        1.0504366849    0.2650860549    0.0000000000
3    
Image 8/11, Energy =   -92.8282152908 (+0.000 kcal/mol)
C        0.0264881097    0.0152703858    0.0000000000
N       -0.9828042658   -0.5232366136    0.0000000000
H        0.9563161561    0.5079662279    0.0000000000
3    
Image 9/11, Energy =   -92.8282158187 (+0.000 kcal/mol)
C        0.0235918575    0.0192599684    0.0000000000
N       -0.8615339848   -0.7057764888    0.0000000000
H        0.8379421273    0.6865165204   -0.0000000000
3    
Image 10/11, Energy =   -92.8275480229 (+0.419 kcal/mol)
C        0.0194260556    0.0213642891    0.0000000000
N       -0.7589320377   -0.8347584640    0.0000000000
H        0.7395059821    0.8133941749    0.0000000000
