3    
Image 0/11, Energy =   -92.8141878354 (+8.802 kcal/mol)
C       -0.7519862184   -0.8272338399    0.0000000000
N        0.0394753354    0.0434721365    0.0000000000
H        0.7125108830    0.7837617034    0.0000000000
3    
Image 1/11, Energy =   -92.8125749392 (+9.814 kcal/mol)
C       -0.6419952451   -0.8834202412    0.0000000000
N       -0.0488518883    0.1209651124   -0.0000000000
H        0.6908471334    0.7624551288   -0.0000000000
3    
Image 2/11, Energy =   -92.7974150235 (+19.327 kcal/mol)
C       -0.3798773053   -0.9553472151   -0.0000000000
N       -0.2247398948    0.2122497751    0.0000000000
H        0.6046172001    0.7430974400    0.0000000000
3    
Image 3/11, Energy =   -92.7731366379 (+34.562 kcal/mol)
C       -0.2310347319   -0.9041237891   -0.0000000000
N       -0.3641880078    0.2789579084    0.0000000000
H        0.5952227398    0.6251658808    0.0000000000
3    
Image 4/11, Energy =   -92.7278483801 (+62.981 kcal/mol)
C       -0.0338694156   -0.7075341066   -0.0000000000
N       -0.6149757785    0.3318964418    0.0000000000
H        0.6488451941    0.3756376648    0.0000000000
3    
Image 5/11, Energy =   -92.7526937880 (+47.390 kcal/mol)
C        0.0191042499   -0.4723489098   -0.0000000000
N       -0.8800229256    0.2622353773    0.0000000000
H        0.8609186757    0.2101135326    0.0000000000
3    
Image 6/11, Energy =   -92.8090249246 (+12.042 kcal/mol)
C        0.0207530341   -0.2363748358   -0.0000000000
N       -1.0393733011    0.1900617136    0.0000000000
H        1.0186202670    0.0463131222    0.0000000000
3    
Image 7/11, Energy =   -92.8281576624 (+0.036 kcal/mol)
C        0.0312128072   -0.0114148686   -0.0000000000
N       -1.1113864534   -0.0418056756    0.0000000000
H        1.0801736462    0.0532205442    0.0000000000
3    
Image 8/11, Energy =   -92.8281300102 (+0.053 kcal/mol)
C        0.0197458053    0.0281489821   -0.0000000000
N       -0.9895577811   -0.5091867904    0.0000000000
H        0.9698119757    0.4810378083   -0.0000000000
3    
Image 9/11, Energy =   -92.8282149805 (+0.000 kcal/mol)
C        0.0210470166    0.0223153438    0.0000000000
N       -0.7990347643   -0.7754244714   -0.0000000000
H        0.7779877476    0.7531091278   -0.0000000000
3    
Image 10/11, Energy =   -92.8275480229 (+0.419 kcal/mol)
C        0.0194260556    0.0213642891    0.0000000000
N       -0.7589320378   -0.8347584640    0.0000000000
H        0.7395059821    0.8133941749    0.0000000000
