3    
Image 0/11, Energy =   -92.8141878354 (+8.803 kcal/mol)
C       -0.7519862184   -0.8272338399    0.0000000000
N        0.0394753354    0.0434721365    0.0000000000
H        0.7125108830    0.7837617034    0.0000000000
3    
Image 1/11, Energy =   -92.8039505916 (+15.227 kcal/mol)
C       -0.4309381766   -0.9619621698   -0.0000000000
N       -0.1725245002    0.1818083471   -0.0000000000
H        0.6034626768    0.7801538227    0.0000000000
3    
Image 2/11, Energy =   -92.7749683336 (+33.413 kcal/mol)
C       -0.2807198640   -0.8979374886   -0.0000000000
N       -0.3448291246    0.2888439541   -0.0000000000
H        0.6255489886    0.6090935345    0.0000000000
3    
Image 3/11, Energy =   -92.7236006241 (+65.647 kcal/mol)
C       -0.0244606689   -0.6478293548   -0.0000000000
N       -0.6884692468    0.3382756959   -0.0000000000
H        0.7129299157    0.3095536589    0.0000000000
3    
Image 4/11, Energy =   -92.7573402480 (+44.475 kcal/mol)
C        0.0148857268   -0.4558942297   -0.0000000000
N       -0.8918956504    0.2687217548   -0.0000000000
H        0.8770099236    0.1871724749    0.0000000000
3    
Image 5/11, Energy =   -92.8244805907 (+2.344 kcal/mol)
C        0.0309592703   -0.1054112009   -0.0000000000
N       -1.0955603024    0.0792460725   -0.0000000000
H        1.0646010321    0.0261651284    0.0000000000
3    
Image 6/11, Energy =   -92.8282100860 (+0.004 kcal/mol)
C        0.0289908605    0.0112209919   -0.0000000000
N       -1.0801492502   -0.2699296077   -0.0000000000
H        1.0511583897    0.2587086157    0.0000000000
3    
Image 7/11, Energy =   -92.8282152908 (+0.000 kcal/mol)
C        0.0264881097    0.0152703858    0.0000000000
N       -0.9828042658   -0.5232366136    0.0000000000
H        0.9563161561    0.5079662279    0.0000000000
3    
Image 8/11, Energy =   -92.8282156648 (+0.000 kcal/mol)
C        0.0221416915    0.0209881793    0.0000000000
N       -0.8122856272   -0.7615192153    0.0000000000
H        0.7901439356    0.7405310360   -0.0000000000
3    
Image 9/11, Energy =   -92.8282153407 (+0.000 kcal/mol)
C        0.0264488443    0.0154640323    0.0000000000
N       -0.9412639086   -0.5951706432    0.0000000000
H        0.9148150643    0.5797066110   -0.0000000000
3    
Image 10/11, Energy =   -92.8275480229 (+0.419 kcal/mol)
C        0.0194260556    0.0213642891    0.0000000000
N       -0.7589320377   -0.8347584640    0.0000000000
H        0.7395059821    0.8133941749    0.0000000000
