3    
Image 0/11, Energy =   -92.8141878354 (+8.384 kcal/mol)
C       -0.7519862184   -0.8272338399    0.0000000000
N        0.0394753354    0.0434721365    0.0000000000
H        0.7125108830    0.7837617034    0.0000000000
3    
Image 1/11, Energy =   -92.8108888218 (+10.454 kcal/mol)
C       -0.6752997417   -0.8460714482    0.0000000000
N       -0.0643277211    0.1478864391   -0.0000000000
H        0.7396274629    0.6981850090    0.0000000000
3    
Image 2/11, Energy =   -92.7829380737 (+27.993 kcal/mol)
C       -0.5056712462   -0.8299848218   -0.0000000000
N       -0.2423407007    0.3258504188   -0.0000000000
H        0.7480119468    0.5041344031   -0.0000000000
3    
Image 3/11, Energy =   -92.7533502671 (+46.560 kcal/mol)
C       -0.3407368387   -0.7894872579    0.0000000000
N       -0.3820160878    0.4098181894   -0.0000000000
H        0.7227529264    0.3796690685   -0.0000000000
3    
Image 4/11, Energy =   -92.7100047079 (+73.760 kcal/mol)
C       -0.1826373636   -0.7865508788   -0.0000000000
N       -0.6338190657    0.3471105580    0.0000000000
H        0.8164564294    0.4394403208    0.0000000000
3    
Image 5/11, Energy =   -92.7473179671 (+50.345 kcal/mol)
C        0.0264970953   -0.5035884403    0.0000000000
N       -0.8842781620    0.2394344561    0.0000000000
H        0.8577810667    0.2641539842    0.0000000000
3    
Image 6/11, Energy =   -92.8013685068 (+16.428 kcal/mol)
C        0.1115440301   -0.2601605905   -0.0000000000
N       -1.0341691494   -0.1396479351   -0.0000000000
H        0.9226251194    0.3998085255   -0.0000000000
3    
Image 7/11, Energy =   -92.8197196374 (+4.912 kcal/mol)
C        0.1025484576   -0.1219641397   -0.0000000000
N       -0.9795812571   -0.4647679270    0.0000000000
H        0.8770327995    0.5867320667    0.0000000000
3    
Image 8/11, Energy =   -92.8245757846 (+1.865 kcal/mol)
C        0.0227537035   -0.0118010796    0.0000000000
N       -0.8295597844   -0.7788928727   -0.0000000000
H        0.8068060808    0.7906939524   -0.0000000000
3    
Image 9/11, Energy =   -92.8080487305 (+12.236 kcal/mol)
C        0.1306411225   -0.0887868507   -0.0000000000
N       -0.8362341651   -0.6138702555    0.0000000000
H        0.7055930427    0.7026571059    0.0000000000
3    
Image 10/11, Energy =   -92.8275480229 (+0.000 kcal/mol)
C        0.0194260556    0.0213642891    0.0000000000
N       -0.7589320378   -0.8347584640    0.0000000000
H        0.7395059821    0.8133941749    0.0000000000
