3    
Image 0/11, Energy =   -92.8141878354 (+8.803 kcal/mol)
C       -0.7519862184   -0.8272338399    0.0000000000
N        0.0394753354    0.0434721365    0.0000000000
H        0.7125108830    0.7837617034    0.0000000000
3    
Image 1/11, Energy =   -92.8039589590 (+15.221 kcal/mol)
C       -0.4307410973   -0.9620344211   -0.0000000000
N       -0.1723933411    0.1817417606   -0.0000000000
H        0.6031344383    0.7802926605    0.0000000000
3    
Image 2/11, Energy =   -92.7727526379 (+34.804 kcal/mol)
C       -0.2685450402   -0.8946535042   -0.0000000000
N       -0.3562778428    0.2959803413   -0.0000000000
H        0.6248228830    0.5986731629    0.0000000000
3    
Image 3/11, Energy =   -92.7333785704 (+59.511 kcal/mol)
C       -0.1223400434   -0.8164988374   -0.0000000000
N       -0.5332831909    0.3713112291   -0.0000000000
H        0.6556232344    0.4451876082    0.0000000000
3    
Image 4/11, Energy =   -92.7236248751 (+65.632 kcal/mol)
C       -0.0236954336   -0.6441127956   -0.0000000000
N       -0.6930042038    0.3366861955   -0.0000000000
H        0.7166996374    0.3074266001    0.0000000000
3    
Image 5/11, Energy =   -92.7616861575 (+41.748 kcal/mol)
C        0.0152280309   -0.4396940692   -0.0000000000
N       -0.9047703576    0.2629403467   -0.0000000000
H        0.8895423266    0.1767537225    0.0000000000
3    
Image 6/11, Energy =   -92.8201403605 (+5.067 kcal/mol)
C        0.0252378757   -0.1552507753   -0.0000000000
N       -1.0762977932    0.1450174521   -0.0000000000
H        1.0510599175    0.0102333232    0.0000000000
3    
Image 7/11, Energy =   -92.8281968056 (+0.012 kcal/mol)
C        0.0315998861    0.0030598943    0.0000000000
N       -1.0820325119   -0.2682746333   -0.0000000000
H        1.0504326257    0.2652147389    0.0000000000
3    
Image 8/11, Energy =   -92.8282152908 (+0.000 kcal/mol)
C        0.0264881097    0.0152703858    0.0000000000
N       -0.9828042658   -0.5232366136    0.0000000000
H        0.9563161561    0.5079662279    0.0000000000
3    
Image 9/11, Energy =   -92.8282158187 (+0.000 kcal/mol)
C        0.0235918575    0.0192599684    0.0000000000
N       -0.8615339848   -0.7057764888    0.0000000000
H        0.8379421273    0.6865165204   -0.0000000000
3    
Image 10/11, Energy =   -92.8275480229 (+0.419 kcal/mol)
C        0.0194260556    0.0213642891    0.0000000000
N       -0.7589320377   -0.8347584640    0.0000000000
H        0.7395059821    0.8133941749    0.0000000000
