3    
Image 0/11, Energy =   -92.8141878354 (+8.516 kcal/mol)
C       -0.7519862184   -0.8272338399    0.0000000000
N        0.0394753354    0.0434721365    0.0000000000
H        0.7125108830    0.7837617034    0.0000000000
3    
Image 1/11, Energy =   -92.8107068252 (+10.700 kcal/mol)
C       -0.6741053096   -0.8549047010    0.0000000000
N       -0.0715839232    0.1494024762   -0.0000000000
H        0.7456892328    0.7055022248   -0.0000000000
3    
Image 2/11, Energy =   -92.7866745436 (+25.781 kcal/mol)
C       -0.4717648334   -0.8659094399   -0.0000000000
N       -0.2424693775    0.2964863401   -0.0000000000
H        0.7142342108    0.5694230998   -0.0000000000
3    
Image 3/11, Energy =   -92.7669714220 (+38.145 kcal/mol)
C       -0.3137057081   -0.8474086308   -0.0000000000
N       -0.3440838019    0.3364924823    0.0000000000
H        0.6577895099    0.5109161484    0.0000000000
3    
Image 4/11, Energy =   -92.7317721268 (+60.232 kcal/mol)
C       -0.0687439091   -0.7350947550   -0.0000000000
N       -0.5671637058    0.3594454086    0.0000000000
H        0.6359076149    0.3756493465    0.0000000000
3    
Image 5/11, Energy =   -92.7501896507 (+48.675 kcal/mol)
C        0.0333676107   -0.4600513804    0.0000000000
N       -0.8693812758    0.2568087298    0.0000000000
H        0.8360136651    0.2032426506    0.0000000000
3    
Image 6/11, Energy =   -92.7963195919 (+19.728 kcal/mol)
C        0.0392796970   -0.2830995681    0.0000000000
N       -1.0116639666    0.1027926568   -0.0000000000
H        0.9723842696    0.1803069112    0.0000000000
3    
Image 7/11, Energy =   -92.8192032062 (+5.369 kcal/mol)
C        0.0646542551   -0.1535500948   -0.0000000000
N       -1.0826308962   -0.1000484490   -0.0000000000
H        1.0179766411    0.2535985438   -0.0000000000
3    
Image 8/11, Energy =   -92.8270923842 (+0.418 kcal/mol)
C        0.0539488760   -0.0228241112   -0.0000000000
N       -0.9998119178   -0.5008153045    0.0000000000
H        0.9458630418    0.5236394157   -0.0000000000
3    
Image 9/11, Energy =   -92.8277585775 (+0.000 kcal/mol)
C        0.0125469442    0.0197200647    0.0000000000
N       -0.8043982365   -0.7822120292   -0.0000000000
H        0.7918512922    0.7624919647   -0.0000000000
3    
Image 10/11, Energy =   -92.8275480229 (+0.132 kcal/mol)
C        0.0194260556    0.0213642891    0.0000000000
N       -0.7589320378   -0.8347584640    0.0000000000
H        0.7395059821    0.8133941749    0.0000000000
