3    
Image 0/11, Energy =   -92.8141878354 (+8.803 kcal/mol)
C       -0.7519862184   -0.8272338399    0.0000000000
N        0.0394753354    0.0434721365    0.0000000000
H        0.7125108830    0.7837617034    0.0000000000
3    
Image 1/11, Energy =   -92.8142971075 (+8.734 kcal/mol)
C       -0.5975361018   -0.9236698467    0.0000000000
N       -0.0125180416    0.0834944915    0.0000000000
H        0.6100541434    0.8401753552   -0.0000000000
3    
Image 2/11, Energy =   -92.7981701221 (+18.854 kcal/mol)
C       -0.3514968383   -0.9694185433   -0.0000000000
N       -0.2266272615    0.2013584199    0.0000000000
H        0.5781240999    0.7680601234   -0.0000000000
3    
Image 3/11, Energy =   -92.7694761723 (+36.860 kcal/mol)
C       -0.2286765424   -0.8901185889   -0.0000000000
N       -0.3789864098    0.2913393092    0.0000000000
H        0.6076629522    0.5987792797   -0.0000000000
3    
Image 4/11, Energy =   -92.7236157295 (+65.637 kcal/mol)
C       -0.0139705822   -0.6509144205   -0.0000000000
N       -0.6898979870    0.3255354855    0.0000000000
H        0.7038685692    0.3253789351   -0.0000000000
3    
Image 5/11, Energy =   -92.7506723002 (+48.659 kcal/mol)
C        0.0216048482   -0.4805991728   -0.0000000000
N       -0.8752466032    0.2619042896    0.0000000000
H        0.8536417550    0.2186948832   -0.0000000000
3    
Image 6/11, Energy =   -92.8089957563 (+12.061 kcal/mol)
C        0.0291967531   -0.2360716545   -0.0000000000
N       -1.0459698682    0.1516991177    0.0000000000
H        1.0167731152    0.0843725368   -0.0000000000
3    
Image 7/11, Energy =   -92.8281526133 (+0.040 kcal/mol)
C        0.0308354749   -0.0129730780   -0.0000000000
N       -1.1125153362   -0.0243883807   -0.0000000000
H        1.0816798613    0.0373614587   -0.0000000000
3    
Image 8/11, Energy =   -92.8282147870 (+0.001 kcal/mol)
C        0.0279928000    0.0126465440   -0.0000000000
N       -0.9981789090   -0.4928874893   -0.0000000000
H        0.9701861090    0.4802409454    0.0000000000
3    
Image 9/11, Energy =   -92.8282156559 (+0.000 kcal/mol)
C        0.0224812053    0.0205070626    0.0000000000
N       -0.8054170480   -0.7691461277   -0.0000000000
H        0.7829358427    0.7486390651   -0.0000000000
3    
Image 10/11, Energy =   -92.8275480229 (+0.419 kcal/mol)
C        0.0194260556    0.0213642891    0.0000000000
N       -0.7589320377   -0.8347584640    0.0000000000
H        0.7395059821    0.8133941749    0.0000000000
