3    
Image 0/11, Energy =   -92.8141878354 (+8.384 kcal/mol)
C       -0.7519862184   -0.8272338399    0.0000000000
N        0.0394753354    0.0434721365    0.0000000000
H        0.7125108830    0.7837617034    0.0000000000
3    
Image 1/11, Energy =   -92.8109399232 (+10.422 kcal/mol)
C       -0.6756993889   -0.8481985489    0.0000000000
N       -0.0642608762    0.1481129356    0.0000000000
H        0.7399602651    0.7000856133    0.0000000000
3    
Image 2/11, Energy =   -92.7841926750 (+27.206 kcal/mol)
C       -0.4877029036   -0.8472172553   -0.0000000000
N       -0.2449973548    0.3151991695    0.0000000000
H        0.7327002584    0.5320180858   -0.0000000000
3    
Image 3/11, Energy =   -92.7635543120 (+40.157 kcal/mol)
C       -0.3269394249   -0.8316384205   -0.0000000000
N       -0.3582803455    0.3566237708    0.0000000000
H        0.6852197704    0.4750146498    0.0000000000
3    
Image 4/11, Energy =   -92.7313931322 (+60.338 kcal/mol)
C       -0.0962490590   -0.7343266089   -0.0000000000
N       -0.5698814553    0.3538811913    0.0000000000
H        0.6661305143    0.3804454176   -0.0000000000
3    
Image 5/11, Energy =   -92.7499140945 (+48.716 kcal/mol)
C        0.0159217250   -0.4843021582    0.0000000000
N       -0.8763420425    0.2495952371   -0.0000000000
H        0.8604203175    0.2347069211   -0.0000000000
3    
Image 6/11, Energy =   -92.7750332686 (+32.954 kcal/mol)
C        0.1028660661   -0.3558742071    0.0000000000
N       -1.0306995669    0.0954016105   -0.0000000000
H        0.9278335008    0.2604725967   -0.0000000000
3    
Image 7/11, Energy =   -92.8126892660 (+9.324 kcal/mol)
C        0.0645353413   -0.1940492422    0.0000000000
N       -1.0568080497   -0.1182709106   -0.0000000000
H        0.9922727085    0.3123201527    0.0000000000
3    
Image 8/11, Energy =   -92.8259006379 (+1.034 kcal/mol)
C        0.0694136275   -0.0565974258   -0.0000000000
N       -0.9992418977   -0.4819064559   -0.0000000000
H        0.9298282703    0.5385038817    0.0000000000
3    
Image 9/11, Energy =   -92.8272706505 (+0.174 kcal/mol)
C        0.0146446737    0.0194689562    0.0000000000
N       -0.7909741155   -0.7667693925   -0.0000000000
H        0.7763294418    0.7473004363   -0.0000000000
3    
Image 10/11, Energy =   -92.8275480229 (+0.000 kcal/mol)
C        0.0194260556    0.0213642891    0.0000000000
N       -0.7589320377   -0.8347584640    0.0000000000
H        0.7395059821    0.8133941749    0.0000000000
