3    
Image 0/11, Energy =   -92.8141878354 (+8.384 kcal/mol)
C       -0.7519862184   -0.8272338399    0.0000000000
N        0.0394753354    0.0434721365    0.0000000000
H        0.7125108830    0.7837617034    0.0000000000
3    
Image 1/11, Energy =   -92.8090330531 (+11.618 kcal/mol)
C       -0.6794455637   -0.8631227603    0.0000000000
N       -0.0856242379    0.1550485100   -0.0000000000
H        0.7650698016    0.7080742503   -0.0000000000
3    
Image 2/11, Energy =   -92.7833338665 (+27.745 kcal/mol)
C       -0.5099357691   -0.8293804686   -0.0000000000
N       -0.2370534503    0.3263457865   -0.0000000000
H        0.7469892195    0.5030346823   -0.0000000000
3    
Image 3/11, Energy =   -92.7482926565 (+49.733 kcal/mol)
C       -0.3316507625   -0.7651586618    0.0000000000
N       -0.3949999903    0.4278794811   -0.0000000000
H        0.7266507527    0.3372791807   -0.0000000000
3    
Image 4/11, Energy =   -92.6938140267 (+83.919 kcal/mol)
C       -0.2199572595   -0.8081377645   -0.0000000000
N       -0.6661617551    0.3386334130    0.0000000000
H        0.8861190146    0.4695043514    0.0000000000
3    
Image 5/11, Energy =   -92.7428877243 (+53.125 kcal/mol)
C        0.0436137852   -0.4987513112    0.0000000000
N       -0.8528895374    0.2397277294   -0.0000000000
H        0.8092757522    0.2590235818    0.0000000000
3    
Image 6/11, Energy =   -92.7953769972 (+20.188 kcal/mol)
C        0.1286131901   -0.2792378748   -0.0000000000
N       -1.0164488760   -0.1420073973   -0.0000000000
H        0.8878356860    0.4212452721   -0.0000000000
3    
Image 7/11, Energy =   -92.8165317172 (+6.913 kcal/mol)
C        0.1244073110   -0.1458397892   -0.0000000000
N       -0.9838444617   -0.4625042382   -0.0000000000
H        0.8594371507    0.6083440273   -0.0000000000
3    
Image 8/11, Energy =   -92.8140365366 (+8.479 kcal/mol)
C        0.0405934788   -0.0331841625    0.0000000000
N       -0.8804466982   -0.7856473714   -0.0000000000
H        0.8398532193    0.8188315340   -0.0000000000
3    
Image 9/11, Energy =   -92.7443458636 (+52.210 kcal/mol)
C        0.1872238810   -0.0670011059   -0.0000000000
N       -0.8965099195   -0.5009638604    0.0000000000
H        0.7092860385    0.5679649662    0.0000000000
3    
Image 10/11, Energy =   -92.8275480229 (+0.000 kcal/mol)
C        0.0194260556    0.0213642891    0.0000000000
N       -0.7589320378   -0.8347584640    0.0000000000
H        0.7395059821    0.8133941749    0.0000000000
