3    
Image 0/11, Energy =   -92.8141878354 (+8.803 kcal/mol)
C       -0.7519862184   -0.8272338399    0.0000000000
N        0.0394753354    0.0434721365    0.0000000000
H        0.7125108830    0.7837617034    0.0000000000
3    
Image 1/11, Energy =   -92.8133329539 (+9.339 kcal/mol)
C       -0.6228515994   -0.8994637938    0.0000000000
N       -0.0364713990    0.1018896182    0.0000000000
H        0.6593229984    0.7975741756   -0.0000000000
3    
Image 2/11, Energy =   -92.7972936096 (+19.404 kcal/mol)
C       -0.3607978914   -0.9604321651    0.0000000000
N       -0.2300012369    0.2058670798    0.0000000000
H        0.5907991283    0.7545650852   -0.0000000000
3    
Image 3/11, Energy =   -92.7701995948 (+36.406 kcal/mol)
C       -0.2234411456   -0.8955225391   -0.0000000000
N       -0.3777600702    0.2884761819    0.0000000000
H        0.6012012158    0.6070463572   -0.0000000000
3    
Image 4/11, Energy =   -92.7234829072 (+65.721 kcal/mol)
C       -0.0076145546   -0.6450899347   -0.0000000000
N       -0.6899796975    0.3281277341    0.0000000000
H        0.6975942520    0.3169622006   -0.0000000000
3    
Image 5/11, Energy =   -92.7502817999 (+48.904 kcal/mol)
C        0.0230889983   -0.4806515569   -0.0000000000
N       -0.8736607495    0.2599313140    0.0000000000
H        0.8505717512    0.2207202429   -0.0000000000
3    
Image 6/11, Energy =   -92.8100985397 (+11.369 kcal/mol)
C        0.0284686882   -0.2291576034   -0.0000000000
N       -1.0480837050    0.1563120823    0.0000000000
H        1.0196150169    0.0728455210   -0.0000000000
3    
Image 7/11, Energy =   -92.8280586685 (+0.099 kcal/mol)
C        0.0315939296   -0.0203262309   -0.0000000000
N       -1.1112406592   -0.0331287126   -0.0000000000
H        1.0796467296    0.0534549435   -0.0000000000
3    
Image 8/11, Energy =   -92.8281949364 (+0.013 kcal/mol)
C        0.0260542472    0.0132033497   -0.0000000000
N       -0.9962691893   -0.4944214134   -0.0000000000
H        0.9702149421    0.4812180637    0.0000000000
3    
Image 9/11, Energy =   -92.8282156559 (+0.000 kcal/mol)
C        0.0224812053    0.0205070626    0.0000000000
N       -0.8054170480   -0.7691461277   -0.0000000000
H        0.7829358427    0.7486390651   -0.0000000000
3    
Image 10/11, Energy =   -92.8275480229 (+0.419 kcal/mol)
C        0.0194260556    0.0213642891    0.0000000000
N       -0.7589320377   -0.8347584640    0.0000000000
H        0.7395059821    0.8133941749    0.0000000000
