3    
Image 0/11, Energy =   -92.8141878354 (+8.803 kcal/mol)
C       -0.7519862184   -0.8272338399    0.0000000000
N        0.0394753354    0.0434721365    0.0000000000
H        0.7125108830    0.7837617034    0.0000000000
3    
Image 1/11, Energy =   -92.8146682501 (+8.501 kcal/mol)
C       -0.5716382294   -0.9419574953    0.0000000000
N        0.0041181539    0.0708862871    0.0000000000
H        0.5675200754    0.8710712081   -0.0000000000
3    
Image 2/11, Energy =   -92.7980691696 (+18.917 kcal/mol)
C       -0.3714911888   -0.9612735688   -0.0000000000
N       -0.2227654759    0.2065223618   -0.0000000000
H        0.5942566646    0.7547512070   -0.0000000000
3    
Image 3/11, Energy =   -92.7681171313 (+37.712 kcal/mol)
C       -0.2378581803   -0.8822199384   -0.0000000000
N       -0.3803215841    0.3009716145    0.0000000000
H        0.6181797644    0.5812483239   -0.0000000000
3    
Image 4/11, Energy =   -92.7236045320 (+65.644 kcal/mol)
C       -0.0149724873   -0.6485205304   -0.0000000000
N       -0.6926729319    0.3259110244    0.0000000000
H        0.7076454192    0.3226095060   -0.0000000000
3    
Image 5/11, Energy =   -92.7508401530 (+48.554 kcal/mol)
C        0.0214399327   -0.4796920996   -0.0000000000
N       -0.8754400791    0.2622228105    0.0000000000
H        0.8540001464    0.2174692892   -0.0000000000
3    
Image 6/11, Energy =   -92.8089230813 (+12.106 kcal/mol)
C        0.0293748887   -0.2363701674   -0.0000000000
N       -1.0456963439    0.1517331650    0.0000000000
H        1.0163214552    0.0846370024   -0.0000000000
3    
Image 7/11, Energy =   -92.8281205013 (+0.060 kcal/mol)
C        0.0312110449   -0.0161320373   -0.0000000000
N       -1.1123456726   -0.0235757880   -0.0000000000
H        1.0811346277    0.0397078254   -0.0000000000
3    
Image 8/11, Energy =   -92.8282147870 (+0.001 kcal/mol)
C        0.0279928000    0.0126465440   -0.0000000000
N       -0.9981789090   -0.4928874893   -0.0000000000
H        0.9701861090    0.4802409454    0.0000000000
3    
Image 9/11, Energy =   -92.8282156559 (+0.000 kcal/mol)
C        0.0224812053    0.0205070626    0.0000000000
N       -0.8054170480   -0.7691461277   -0.0000000000
H        0.7829358427    0.7486390651   -0.0000000000
3    
Image 10/11, Energy =   -92.8275480229 (+0.419 kcal/mol)
C        0.0194260556    0.0213642891    0.0000000000
N       -0.7589320377   -0.8347584640    0.0000000000
H        0.7395059821    0.8133941749    0.0000000000
