3    
Image 0/11, Energy =   -92.8141878354 (+8.802 kcal/mol)
C       -0.7519862184   -0.8272338399    0.0000000000
N        0.0394753354    0.0434721365    0.0000000000
H        0.7125108830    0.7837617034    0.0000000000
3    
Image 1/11, Energy =   -92.8116327196 (+10.406 kcal/mol)
C       -0.6501591540   -0.8709898353    0.0000000000
N       -0.0618325666    0.1351354232   -0.0000000000
H        0.7119917206    0.7358544121   -0.0000000000
3    
Image 2/11, Energy =   -92.7956697222 (+20.422 kcal/mol)
C       -0.4035539610   -0.9381600898   -0.0000000000
N       -0.2314667334    0.2247806021    0.0000000000
H        0.6350206944    0.7133794877    0.0000000000
3    
Image 3/11, Energy =   -92.7726527651 (+34.866 kcal/mol)
C       -0.2428893934   -0.8985358785   -0.0000000000
N       -0.3629103093    0.2840817617    0.0000000000
H        0.6057997028    0.6144541168    0.0000000000
3    
Image 4/11, Energy =   -92.7325108540 (+60.055 kcal/mol)
C       -0.0469357887   -0.7385156111    0.0000000000
N       -0.5750127018    0.3353555540    0.0000000000
H        0.6219484905    0.4031600571    0.0000000000
3    
Image 5/11, Energy =   -92.7520492616 (+47.795 kcal/mol)
C        0.0177080206   -0.4788822709   -0.0000000000
N       -0.8804532391    0.2762842091    0.0000000000
H        0.8627452185    0.2025980618    0.0000000000
3    
Image 6/11, Energy =   -92.8079897986 (+12.691 kcal/mol)
C        0.0175139943   -0.2448088430   -0.0000000000
N       -1.0372751266    0.1983604022    0.0000000000
H        1.0197611323    0.0464484408    0.0000000000
3    
Image 7/11, Energy =   -92.8276597770 (+0.348 kcal/mol)
C        0.0258890546   -0.0303417494   -0.0000000000
N       -1.1156458640   -0.0465362412    0.0000000000
H        1.0897568094    0.0768779906    0.0000000000
3    
Image 8/11, Energy =   -92.8279828103 (+0.146 kcal/mol)
C        0.0148706783    0.0369504854   -0.0000000000
N       -0.9890589864   -0.5149044623    0.0000000000
H        0.9741883082    0.4779539769   -0.0000000000
3    
Image 9/11, Energy =   -92.8282149805 (+0.000 kcal/mol)
C        0.0210470166    0.0223153438    0.0000000000
N       -0.7990347643   -0.7754244714   -0.0000000000
H        0.7779877476    0.7531091278   -0.0000000000
3    
Image 10/11, Energy =   -92.8275480229 (+0.419 kcal/mol)
C        0.0194260556    0.0213642891    0.0000000000
N       -0.7589320378   -0.8347584640    0.0000000000
H        0.7395059821    0.8133941749    0.0000000000
