3    
Image 0/11, Energy =   -92.8141878354 (+8.801 kcal/mol)
C       -0.7519862184   -0.8272338399    0.0000000000
N        0.0394753354    0.0434721365    0.0000000000
H        0.7125108830    0.7837617034    0.0000000000
3    
Image 1/11, Energy =   -92.8121780331 (+10.062 kcal/mol)
C       -0.6400119651   -0.8824509673    0.0000000000
N       -0.0555687719    0.1269987744    0.0000000000
H        0.6955807370    0.7554521929   -0.0000000000
3    
Image 2/11, Energy =   -92.7962918783 (+20.030 kcal/mol)
C       -0.3902843261   -0.9458758654   -0.0000000000
N       -0.2284710750    0.2205757119    0.0000000000
H        0.6187554011    0.7253001535   -0.0000000000
3    
Image 3/11, Energy =   -92.7705880159 (+36.160 kcal/mol)
C       -0.2283702435   -0.8940652628   -0.0000000000
N       -0.3728331574    0.2885441800    0.0000000000
H        0.6012034008    0.6055210828   -0.0000000000
3    
Image 4/11, Energy =   -92.7304312004 (+61.359 kcal/mol)
C       -0.0487871672   -0.7257935924   -0.0000000000
N       -0.5908831816    0.3347305955    0.0000000000
H        0.6396703488    0.3910629969   -0.0000000000
3    
Image 5/11, Energy =   -92.7501633705 (+48.977 kcal/mol)
C        0.0182559467   -0.4832624984   -0.0000000000
N       -0.8723283972    0.2680604146    0.0000000000
H        0.8540724505    0.2152020838   -0.0000000000
3    
Image 6/11, Energy =   -92.8104748003 (+11.131 kcal/mol)
C        0.0264835064   -0.2271654828   -0.0000000000
N       -1.0478648447    0.1651298465    0.0000000000
H        1.0213813383    0.0620356363   -0.0000000000
3    
Image 7/11, Energy =   -92.8278742047 (+0.212 kcal/mol)
C        0.0332262964   -0.0305817780   -0.0000000000
N       -1.1114514200   -0.0419122549   -0.0000000000
H        1.0782251235    0.0724940329   -0.0000000000
3    
Image 8/11, Energy =   -92.8281593061 (+0.033 kcal/mol)
C        0.0213972171    0.0253090987   -0.0000000000
N       -0.9938032752   -0.5010627804   -0.0000000000
H        0.9724060581    0.4757536817    0.0000000000
3    
Image 9/11, Energy =   -92.8282124094 (+0.000 kcal/mol)
C        0.0229778812    0.0208671189    0.0000000000
N       -0.8056279361   -0.7695877847   -0.0000000000
H        0.7826500549    0.7487206659   -0.0000000000
3    
Image 10/11, Energy =   -92.8275480229 (+0.417 kcal/mol)
C        0.0194260556    0.0213642891    0.0000000000
N       -0.7589320377   -0.8347584640    0.0000000000
H        0.7395059821    0.8133941749    0.0000000000
