3    
Image 0/11, Energy =   -92.8141878354 (+8.384 kcal/mol)
C       -0.7519862184   -0.8272338399    0.0000000000
N        0.0394753354    0.0434721365    0.0000000000
H        0.7125108830    0.7837617034    0.0000000000
3    
Image 1/11, Energy =   -92.8108110703 (+10.503 kcal/mol)
C       -0.6742744324   -0.8424492898    0.0000000000
N       -0.0605775498    0.1462319757    0.0000000000
H        0.7348519822    0.6962173141    0.0000000000
3    
Image 2/11, Energy =   -92.7829012004 (+28.016 kcal/mol)
C       -0.5017350645   -0.8341056660    0.0000000000
N       -0.2435523885    0.3267727163    0.0000000000
H        0.7452874530    0.5073329498   -0.0000000000
3    
Image 3/11, Energy =   -92.7570725003 (+44.224 kcal/mol)
C       -0.3433325217   -0.8020201547    0.0000000000
N       -0.3731657982    0.3893027425    0.0000000000
H        0.7164983199    0.4127174123    0.0000000000
3    
Image 4/11, Energy =   -92.7184838673 (+68.439 kcal/mol)
C       -0.1646144241   -0.7477388572    0.0000000000
N       -0.5979728031    0.3290070641    0.0000000000
H        0.7625872271    0.4187317931   -0.0000000000
3    
Image 5/11, Energy =   -92.7477408127 (+50.080 kcal/mol)
C        0.0086483694   -0.4943605815    0.0000000000
N       -0.8837879702    0.2337281745   -0.0000000000
H        0.8751396008    0.2606324070   -0.0000000000
3    
Image 6/11, Energy =   -92.8031668747 (+15.299 kcal/mol)
C        0.0819999326   -0.2395000847    0.0000000000
N       -1.0299427483   -0.1388018773   -0.0000000000
H        0.9479428157    0.3783019620    0.0000000000
3    
Image 7/11, Energy =   -92.8210246180 (+4.093 kcal/mol)
C        0.1043926388   -0.0980932094   -0.0000000000
N       -0.9967709329   -0.4696094426   -0.0000000000
H        0.8923782941    0.5677026520    0.0000000000
3    
Image 8/11, Energy =   -92.8275383567 (+0.006 kcal/mol)
C        0.0221127304    0.0155151945    0.0000000000
N       -0.8156416257   -0.7794655721   -0.0000000000
H        0.7935288952    0.7639503776   -0.0000000000
3    
Image 9/11, Energy =   -92.8209136116 (+4.163 kcal/mol)
C        0.1284369936   -0.0766468085   -0.0000000000
N       -0.8430131257   -0.7002691881    0.0000000000
H        0.7145761321    0.7769159966    0.0000000000
3    
Image 10/11, Energy =   -92.8275480229 (+0.000 kcal/mol)
C        0.0194260556    0.0213642891    0.0000000000
N       -0.7589320377   -0.8347584640    0.0000000000
H        0.7395059821    0.8133941749    0.0000000000
