3    
Image 0/11, Energy =   -92.8141878354 (+8.802 kcal/mol)
C       -0.7519862184   -0.8272338399    0.0000000000
N        0.0394753354    0.0434721365    0.0000000000
H        0.7125108830    0.7837617034    0.0000000000
3    
Image 1/11, Energy =   -92.8119060822 (+10.234 kcal/mol)
C       -0.6471379639   -0.8757493411    0.0000000000
N       -0.0582657337    0.1318056618   -0.0000000000
H        0.7054036976    0.7439436793    0.0000000000
3    
Image 2/11, Energy =   -92.7967351623 (+19.754 kcal/mol)
C       -0.3936257716   -0.9470373299   -0.0000000000
N       -0.2263691381    0.2187653095    0.0000000000
H        0.6199949098    0.7282720203    0.0000000000
3    
Image 3/11, Energy =   -92.7731450097 (+34.557 kcal/mol)
C       -0.2345717062   -0.9036737839   -0.0000000000
N       -0.3631004368    0.2809028359    0.0000000000
H        0.5976721430    0.6227709480    0.0000000000
3    
Image 4/11, Energy =   -92.7325981010 (+60.000 kcal/mol)
C       -0.0475680282   -0.7382188357    0.0000000000
N       -0.5755440816    0.3318073893    0.0000000000
H        0.6231121098    0.4064114465    0.0000000000
3    
Image 5/11, Energy =   -92.7524300472 (+47.556 kcal/mol)
C        0.0154663719   -0.4758209523   -0.0000000000
N       -0.8787860461    0.2722427946    0.0000000000
H        0.8633196743    0.2035781577    0.0000000000
3    
Image 6/11, Energy =   -92.8088199767 (+12.171 kcal/mol)
C        0.0186765068   -0.2391455558   -0.0000000000
N       -1.0384679080    0.2026882230    0.0000000000
H        1.0197914012    0.0364573329    0.0000000000
3    
Image 7/11, Energy =   -92.8280475355 (+0.105 kcal/mol)
C        0.0299582733   -0.0169690813   -0.0000000000
N       -1.1168975526   -0.0421582126    0.0000000000
H        1.0869392793    0.0591272939    0.0000000000
3    
Image 8/11, Energy =   -92.8279466134 (+0.168 kcal/mol)
C        0.0153415107    0.0392376993   -0.0000000000
N       -0.9887154707   -0.5145945008    0.0000000000
H        0.9733739600    0.4753568015   -0.0000000000
3    
Image 9/11, Energy =   -92.8282149805 (+0.000 kcal/mol)
C        0.0210470166    0.0223153438    0.0000000000
N       -0.7990347643   -0.7754244714   -0.0000000000
H        0.7779877476    0.7531091278   -0.0000000000
3    
Image 10/11, Energy =   -92.8275480229 (+0.419 kcal/mol)
C        0.0194260556    0.0213642891    0.0000000000
N       -0.7589320378   -0.8347584640    0.0000000000
H        0.7395059821    0.8133941749    0.0000000000
