3    
Image 0/11, Energy =   -92.8141878354 (+8.803 kcal/mol)
C       -0.7519862184   -0.8272338399    0.0000000000
N        0.0394753354    0.0434721365    0.0000000000
H        0.7125108830    0.7837617034    0.0000000000
3    
Image 1/11, Energy =   -92.8139924110 (+8.925 kcal/mol)
C       -0.6098903334   -0.9141620052    0.0000000000
N       -0.0209259694    0.0926084407    0.0000000000
H        0.6308163028    0.8215535645   -0.0000000000
3    
Image 2/11, Energy =   -92.7981197785 (+18.885 kcal/mol)
C       -0.3466315526   -0.9701582318    0.0000000000
N       -0.2272299256    0.2002109790    0.0000000000
H        0.5738614783    0.7699472528   -0.0000000000
3    
Image 3/11, Energy =   -92.7699511720 (+36.562 kcal/mol)
C       -0.2214413436   -0.8950868949   -0.0000000000
N       -0.3801505778    0.2876921598    0.0000000000
H        0.6015919214    0.6073947352   -0.0000000000
3    
Image 4/11, Energy =   -92.7236132737 (+65.639 kcal/mol)
C       -0.0143721054   -0.6407939432   -0.0000000000
N       -0.7031179153    0.3202171553    0.0000000000
H        0.7174900208    0.3205767879   -0.0000000000
3    
Image 5/11, Energy =   -92.7503828899 (+48.841 kcal/mol)
C        0.0217464866   -0.4819479429   -0.0000000000
N       -0.8746831672    0.2613627933    0.0000000000
H        0.8529366806    0.2205851496   -0.0000000000
3    
Image 6/11, Energy =   -92.8095417339 (+11.718 kcal/mol)
C        0.0282957515   -0.2325679250   -0.0000000000
N       -1.0463755839    0.1575744035    0.0000000000
H        1.0180798324    0.0749935215   -0.0000000000
3    
Image 7/11, Energy =   -92.8281663903 (+0.031 kcal/mol)
C        0.0315909140   -0.0105336821   -0.0000000000
N       -1.1119444296   -0.0262703995   -0.0000000000
H        1.0803535156    0.0368040816   -0.0000000000
3    
Image 8/11, Energy =   -92.8282147870 (+0.001 kcal/mol)
C        0.0279928000    0.0126465440   -0.0000000000
N       -0.9981789090   -0.4928874893   -0.0000000000
H        0.9701861090    0.4802409454    0.0000000000
3    
Image 9/11, Energy =   -92.8282156559 (+0.000 kcal/mol)
C        0.0224812053    0.0205070626    0.0000000000
N       -0.8054170480   -0.7691461277   -0.0000000000
H        0.7829358427    0.7486390651   -0.0000000000
3    
Image 10/11, Energy =   -92.8275480229 (+0.419 kcal/mol)
C        0.0194260556    0.0213642891    0.0000000000
N       -0.7589320377   -0.8347584640    0.0000000000
H        0.7395059821    0.8133941749    0.0000000000
