3    
Image 0/11, Energy =   -92.8141878354 (+8.803 kcal/mol)
C       -0.7519862184   -0.8272338399    0.0000000000
N        0.0394753354    0.0434721365    0.0000000000
H        0.7125108830    0.7837617034    0.0000000000
3    
Image 1/11, Energy =   -92.8146867296 (+8.490 kcal/mol)
C       -0.5975954927   -0.9262399470    0.0000000000
N        0.0069433860    0.0696686013   -0.0000000000
H        0.5906521066    0.8565713457    0.0000000000
3    
Image 2/11, Energy =   -92.7983019312 (+18.771 kcal/mol)
C       -0.3654724646   -0.9646802245    0.0000000000
N       -0.2227647320    0.2038704173    0.0000000000
H        0.5882371966    0.7608098072    0.0000000000
3    
Image 3/11, Energy =   -92.7717405321 (+35.439 kcal/mol)
C       -0.2559766848   -0.8921879405   -0.0000000000
N       -0.3630433668    0.2932328295    0.0000000000
H        0.6190200517    0.5989551110    0.0000000000
3    
Image 4/11, Energy =   -92.7236058663 (+65.644 kcal/mol)
C       -0.0156962228   -0.6475653697   -0.0000000000
N       -0.6930069939    0.3276794680    0.0000000000
H        0.7087032166    0.3198859017    0.0000000000
3    
Image 5/11, Energy =   -92.7536393253 (+46.797 kcal/mol)
C        0.0209262387   -0.4693285290   -0.0000000000
N       -0.8841553753    0.2599658151    0.0000000000
H        0.8632291366    0.2093627139    0.0000000000
3    
Image 6/11, Energy =   -92.8087401316 (+12.221 kcal/mol)
C        0.0290269769   -0.2376738405   -0.0000000000
N       -1.0451726280    0.1531859590    0.0000000000
H        1.0161456511    0.0844878815    0.0000000000
3    
Image 7/11, Energy =   -92.8281276472 (+0.055 kcal/mol)
C        0.0309836041   -0.0154254740   -0.0000000000
N       -1.1126761780   -0.0323875062    0.0000000000
H        1.0816925739    0.0478129802    0.0000000000
3    
Image 8/11, Energy =   -92.8282157392 (+0.000 kcal/mol)
C        0.0269857428    0.0140077305    0.0000000000
N       -0.9937948371   -0.5024305910    0.0000000000
H        0.9668090943    0.4884228605   -0.0000000000
3    
Image 9/11, Energy =   -92.8282149805 (+0.000 kcal/mol)
C        0.0210470166    0.0223153438    0.0000000000
N       -0.7990347643   -0.7754244714   -0.0000000000
H        0.7779877476    0.7531091278   -0.0000000000
3    
Image 10/11, Energy =   -92.8275480229 (+0.419 kcal/mol)
C        0.0194260556    0.0213642891    0.0000000000
N       -0.7589320378   -0.8347584640    0.0000000000
H        0.7395059821    0.8133941749    0.0000000000
