3    
Image 0/11, Energy =   -92.8141878354 (+8.740 kcal/mol)
C       -0.7519862184   -0.8272338399    0.0000000000
N        0.0394753354    0.0434721365    0.0000000000
H        0.7125108830    0.7837617034    0.0000000000
3    
Image 1/11, Energy =   -92.8109188017 (+10.791 kcal/mol)
C       -0.6735787463   -0.8513623957    0.0000000000
N       -0.0676716341    0.1474365816   -0.0000000000
H        0.7412503803    0.7039258141   -0.0000000000
3    
Image 2/11, Energy =   -92.7861134524 (+26.357 kcal/mol)
C       -0.4734790749   -0.8624834553    0.0000000000
N       -0.2438905197    0.2999065929   -0.0000000000
H        0.7173695945    0.5625768623    0.0000000000
3    
Image 3/11, Energy =   -92.7665031573 (+38.663 kcal/mol)
C       -0.3164636795   -0.8476449755   -0.0000000000
N       -0.3499430354    0.3428725487    0.0000000000
H        0.6664067148    0.5047724267    0.0000000000
3    
Image 4/11, Energy =   -92.7320578342 (+60.277 kcal/mol)
C       -0.0780018238   -0.7338228570   -0.0000000000
N       -0.5666725115    0.3551168160    0.0000000000
H        0.6446743353    0.3787060410    0.0000000000
3    
Image 5/11, Energy =   -92.7516543296 (+47.980 kcal/mol)
C        0.0264435101   -0.4711431088    0.0000000000
N       -0.8766384254    0.2568035719    0.0000000000
H        0.8501949153    0.2143395369    0.0000000000
3    
Image 6/11, Energy =   -92.7956825497 (+20.352 kcal/mol)
C        0.0516615254   -0.2998967169    0.0000000000
N       -1.0167297578    0.1033274019   -0.0000000000
H        0.9650682324    0.1965693150    0.0000000000
3    
Image 7/11, Energy =   -92.8182988663 (+6.160 kcal/mol)
C        0.0662675624   -0.1618682666   -0.0000000000
N       -1.0797809546   -0.1029066555   -0.0000000000
H        1.0135133922    0.2647749220   -0.0000000000
3    
Image 8/11, Energy =   -92.8271242830 (+0.622 kcal/mol)
C        0.0476312993   -0.0338413333   -0.0000000000
N       -0.9907057211   -0.4944033121    0.0000000000
H        0.9430744218    0.5282446453   -0.0000000000
3    
Image 9/11, Energy =   -92.8281160397 (+0.000 kcal/mol)
C        0.0166715057    0.0249835729    0.0000000000
N       -0.8020807660   -0.7800216053   -0.0000000000
H        0.7854092601    0.7550380325   -0.0000000000
3    
Image 10/11, Energy =   -92.8275480229 (+0.356 kcal/mol)
C        0.0194260556    0.0213642891    0.0000000000
N       -0.7589320378   -0.8347584640    0.0000000000
H        0.7395059821    0.8133941749    0.0000000000
