3    
Image 0/11, Energy =   -92.8141878354 (+8.802 kcal/mol)
C       -0.7519862184   -0.8272338399    0.0000000000
N        0.0394753354    0.0434721365    0.0000000000
H        0.7125108830    0.7837617034    0.0000000000
3    
Image 1/11, Energy =   -92.8144143974 (+8.660 kcal/mol)
C       -0.6118891318   -0.9152638562    0.0000000000
N       -0.0063450616    0.0804461318   -0.0000000000
H        0.6182341934    0.8348177244    0.0000000000
3    
Image 2/11, Energy =   -92.7983193240 (+18.760 kcal/mol)
C       -0.3557863333   -0.9683636866    0.0000000000
N       -0.2248479792    0.2014176878    0.0000000000
H        0.5806343125    0.7669459988    0.0000000000
3    
Image 3/11, Energy =   -92.7721604610 (+35.175 kcal/mol)
C       -0.2451477764   -0.8972029576   -0.0000000000
N       -0.3652706938    0.2873930910    0.0000000000
H        0.6104184702    0.6098098666    0.0000000000
3    
Image 4/11, Energy =   -92.7236058663 (+65.643 kcal/mol)
C       -0.0156962228   -0.6475653697   -0.0000000000
N       -0.6930069939    0.3276794680    0.0000000000
H        0.7087032166    0.3198859017    0.0000000000
3    
Image 5/11, Energy =   -92.7536393253 (+46.797 kcal/mol)
C        0.0209262387   -0.4693285290   -0.0000000000
N       -0.8841553753    0.2599658151    0.0000000000
H        0.8632291366    0.2093627139    0.0000000000
3    
Image 6/11, Energy =   -92.8087519171 (+12.213 kcal/mol)
C        0.0294751020   -0.2374723180   -0.0000000000
N       -1.0453482242    0.1520074893    0.0000000000
H        1.0158731223    0.0854648286    0.0000000000
3    
Image 7/11, Energy =   -92.8281546573 (+0.038 kcal/mol)
C        0.0311146939   -0.0125671646   -0.0000000000
N       -1.1124988355   -0.0352136202    0.0000000000
H        1.0813841417    0.0477807847    0.0000000000
3    
Image 8/11, Energy =   -92.8282131464 (+0.001 kcal/mol)
C        0.0283950424    0.0111615795    0.0000000000
N       -0.9943604005   -0.5013862524    0.0000000000
H        0.9659653581    0.4902246729   -0.0000000000
3    
Image 9/11, Energy =   -92.8282149805 (+0.000 kcal/mol)
C        0.0210470166    0.0223153438    0.0000000000
N       -0.7990347643   -0.7754244714   -0.0000000000
H        0.7779877476    0.7531091278   -0.0000000000
3    
Image 10/11, Energy =   -92.8275480229 (+0.419 kcal/mol)
C        0.0194260556    0.0213642891    0.0000000000
N       -0.7589320378   -0.8347584640    0.0000000000
H        0.7395059821    0.8133941749    0.0000000000
