3    
Image 0/11, Energy =   -92.8141878354 (+8.802 kcal/mol)
C       -0.7519862184   -0.8272338399    0.0000000000
N        0.0394753354    0.0434721365    0.0000000000
H        0.7125108830    0.7837617034    0.0000000000
3    
Image 1/11, Energy =   -92.8039505916 (+15.226 kcal/mol)
C       -0.4309381766   -0.9619621698   -0.0000000000
N       -0.1725245002    0.1818083471   -0.0000000000
H        0.6034626768    0.7801538227    0.0000000000
3    
Image 2/11, Energy =   -92.7748452932 (+33.490 kcal/mol)
C       -0.2802019232   -0.8980649485   -0.0000000000
N       -0.3457887732    0.2894244655   -0.0000000000
H        0.6259906964    0.6086404830    0.0000000000
3    
Image 3/11, Energy =   -92.7235256823 (+65.694 kcal/mol)
C       -0.0310547580   -0.6523527260   -0.0000000000
N       -0.6871405993    0.3361382603   -0.0000000000
H        0.7181953573    0.3162144657    0.0000000000
3    
Image 4/11, Energy =   -92.7589264445 (+43.479 kcal/mol)
C        0.0157402117   -0.4513304318   -0.0000000000
N       -0.8985331936    0.2635852050   -0.0000000000
H        0.8827929819    0.1877452268    0.0000000000
3    
Image 5/11, Energy =   -92.8232190230 (+3.135 kcal/mol)
C        0.0277821364   -0.1227856194   -0.0000000000
N       -1.0883268327    0.1237873042   -0.0000000000
H        1.0605446964   -0.0010016848    0.0000000000
3    
Image 6/11, Energy =   -92.8282079493 (+0.005 kcal/mol)
C        0.0298396897    0.0095015379   -0.0000000000
N       -1.0799455611   -0.2748908384   -0.0000000000
H        1.0501058714    0.2653893005    0.0000000000
3    
Image 7/11, Energy =   -92.8282152908 (+0.000 kcal/mol)
C        0.0264881097    0.0152703858    0.0000000000
N       -0.9828042658   -0.5232366136    0.0000000000
H        0.9563161561    0.5079662279    0.0000000000
3    
Image 8/11, Energy =   -92.8282118763 (+0.002 kcal/mol)
C        0.0233515197    0.0204474466    0.0000000000
N       -0.8370645469   -0.7354745344    0.0000000000
H        0.8137130271    0.7150270879   -0.0000000000
3    
Image 9/11, Energy =   -92.8281896124 (+0.016 kcal/mol)
C        0.0234434421    0.0167047108    0.0000000000
N       -0.9193391700   -0.6265016227    0.0000000000
H        0.8958957278    0.6097969119   -0.0000000000
3    
Image 10/11, Energy =   -92.8275480229 (+0.419 kcal/mol)
C        0.0194260556    0.0213642891    0.0000000000
N       -0.7589320377   -0.8347584640    0.0000000000
H        0.7395059821    0.8133941749    0.0000000000
