3    
Image 0/11, Energy =   -92.8141878354 (+8.802 kcal/mol)
C       -0.7519862184   -0.8272338399    0.0000000000
N        0.0394753354    0.0434721365    0.0000000000
H        0.7125108830    0.7837617034    0.0000000000
3    
Image 1/11, Energy =   -92.8113523367 (+10.581 kcal/mol)
C       -0.6561328012   -0.8654966761    0.0000000000
N       -0.0635652766    0.1405966796   -0.0000000000
H        0.7196980778    0.7248999965   -0.0000000000
3    
Image 2/11, Energy =   -92.7936913163 (+21.664 kcal/mol)
C       -0.4205603315   -0.9260824294   -0.0000000000
N       -0.2357600610    0.2446719186    0.0000000000
H        0.6563203924    0.6814105108    0.0000000000
3    
Image 3/11, Energy =   -92.7714912294 (+35.595 kcal/mol)
C       -0.2586088313   -0.8908114489   -0.0000000000
N       -0.3618104437    0.2972440571    0.0000000000
H        0.6204192750    0.5935673918    0.0000000000
3    
Image 4/11, Energy =   -92.7324204407 (+60.112 kcal/mol)
C       -0.0523304450   -0.7340598370   -0.0000000000
N       -0.5707394621    0.3367281241    0.0000000000
H        0.6230699071    0.3973317129    0.0000000000
3    
Image 5/11, Energy =   -92.7520096567 (+47.820 kcal/mol)
C        0.0095385558   -0.4726108638   -0.0000000000
N       -0.8735199126    0.2688069278    0.0000000000
H        0.8639813568    0.2038039360    0.0000000000
3    
Image 6/11, Energy =   -92.8058603246 (+14.028 kcal/mol)
C        0.0227356774   -0.2578077379   -0.0000000000
N       -1.0367732771    0.1839509974    0.0000000000
H        1.0140375997    0.0738567405    0.0000000000
3    
Image 7/11, Energy =   -92.8269563160 (+0.790 kcal/mol)
C        0.0321420420   -0.0583146654   -0.0000000000
N       -1.1133958408   -0.0571555326   -0.0000000000
H        1.0812537988    0.1154701980    0.0000000000
3    
Image 8/11, Energy =   -92.8281268004 (+0.055 kcal/mol)
C        0.0206608269    0.0266105793   -0.0000000000
N       -0.9913589312   -0.5127483495    0.0000000000
H        0.9706981043    0.4861377702   -0.0000000000
3    
Image 9/11, Energy =   -92.8282149805 (+0.000 kcal/mol)
C        0.0210470166    0.0223153438    0.0000000000
N       -0.7990347643   -0.7754244714   -0.0000000000
H        0.7779877476    0.7531091278   -0.0000000000
3    
Image 10/11, Energy =   -92.8275480229 (+0.419 kcal/mol)
C        0.0194260556    0.0213642891    0.0000000000
N       -0.7589320378   -0.8347584640    0.0000000000
H        0.7395059821    0.8133941749    0.0000000000
