3    
Image 0/11, Energy =   -92.8141878354 (+8.619 kcal/mol)
C       -0.7519862184   -0.8272338399    0.0000000000
N        0.0394753354    0.0434721365    0.0000000000
H        0.7125108830    0.7837617034    0.0000000000
3    
Image 1/11, Energy =   -92.8106437988 (+10.843 kcal/mol)
C       -0.6735342707   -0.8396959875   -0.0000000000
N       -0.0574130204    0.1450196936   -0.0000000000
H        0.7309472911    0.6946762939   -0.0000000000
3    
Image 2/11, Energy =   -92.7825891851 (+28.447 kcal/mol)
C       -0.4988911291   -0.8348374681   -0.0000000000
N       -0.2456163446    0.3278619569   -0.0000000000
H        0.7445074737    0.5069755112   -0.0000000000
3    
Image 3/11, Energy =   -92.7587082693 (+43.433 kcal/mol)
C       -0.3459938042   -0.8081352059   -0.0000000000
N       -0.3689570173    0.3814217917   -0.0000000000
H        0.7149508214    0.4267134141   -0.0000000000
3    
Image 4/11, Energy =   -92.7187501802 (+68.507 kcal/mol)
C       -0.1566554724   -0.7355126354   -0.0000000000
N       -0.5844074466    0.3251718463    0.0000000000
H        0.7410629190    0.4103407891    0.0000000000
3    
Image 5/11, Energy =   -92.7475240462 (+50.451 kcal/mol)
C        0.0018307549   -0.4923106528    0.0000000000
N       -0.8868297034    0.2325694275    0.0000000000
H        0.8849989485    0.2597412254    0.0000000000
3    
Image 6/11, Energy =   -92.8032615946 (+15.475 kcal/mol)
C        0.0734652675   -0.2319897334   -0.0000000000
N       -1.0318670276   -0.1380607653   -0.0000000000
H        0.9584017602    0.3700504987   -0.0000000000
3    
Image 7/11, Energy =   -92.8210261056 (+4.328 kcal/mol)
C        0.1027207130   -0.0897997629   -0.0000000000
N       -1.0012494312   -0.4699182592    0.0000000000
H        0.8985287182    0.5597180221    0.0000000000
3    
Image 8/11, Energy =   -92.8279229726 (+0.000 kcal/mol)
C        0.0205862177    0.0259248675    0.0000000000
N       -0.8054978855   -0.7805790111   -0.0000000000
H        0.7849116677    0.7546541438   -0.0000000000
3    
Image 9/11, Energy =   -92.8204972637 (+4.660 kcal/mol)
C        0.1241772601   -0.0739676124   -0.0000000000
N       -0.8398323701   -0.7378019457    0.0000000000
H        0.7156551101    0.8117695576    0.0000000000
3    
Image 10/11, Energy =   -92.8275480229 (+0.235 kcal/mol)
C        0.0194260556    0.0213642891    0.0000000000
N       -0.7589320378   -0.8347584640    0.0000000000
H        0.7395059821    0.8133941749    0.0000000000
