3    
Image 0/11, Energy =   -92.8141878354 (+8.802 kcal/mol)
C       -0.7519862184   -0.8272338399    0.0000000000
N        0.0394753354    0.0434721365    0.0000000000
H        0.7125108830    0.7837617034    0.0000000000
3    
Image 1/11, Energy =   -92.8039505916 (+15.226 kcal/mol)
C       -0.4309381766   -0.9619621698   -0.0000000000
N       -0.1725245002    0.1818083471   -0.0000000000
H        0.6034626768    0.7801538227    0.0000000000
3    
Image 2/11, Energy =   -92.7748899483 (+33.462 kcal/mol)
C       -0.2803331643   -0.8978076769   -0.0000000000
N       -0.3452976819    0.2890358450   -0.0000000000
H        0.6256308462    0.6087718319    0.0000000000
3    
Image 3/11, Energy =   -92.7235275285 (+65.693 kcal/mol)
C       -0.0304867061   -0.6512835652   -0.0000000000
N       -0.6884457975    0.3359769726   -0.0000000000
H        0.7189325035    0.3153065927    0.0000000000
3    
Image 4/11, Energy =   -92.7584921818 (+43.752 kcal/mol)
C        0.0153421386   -0.4528400629   -0.0000000000
N       -0.8969126069    0.2648864158   -0.0000000000
H        0.8815704682    0.1879536471    0.0000000000
3    
Image 5/11, Energy =   -92.8235609908 (+2.921 kcal/mol)
C        0.0274367859   -0.1180014861   -0.0000000000
N       -1.0893174804    0.1127063382   -0.0000000000
H        1.0618806945    0.0052951479    0.0000000000
3    
Image 6/11, Energy =   -92.8281943175 (+0.013 kcal/mol)
C        0.0302687729    0.0106146833   -0.0000000000
N       -1.0804477498   -0.2736743636   -0.0000000000
H        1.0501789768    0.2630596803    0.0000000000
3    
Image 7/11, Energy =   -92.8282152908 (+0.000 kcal/mol)
C        0.0264881097    0.0152703858    0.0000000000
N       -0.9828042658   -0.5232366136    0.0000000000
H        0.9563161561    0.5079662279    0.0000000000
3    
Image 8/11, Energy =   -92.8282145112 (+0.000 kcal/mol)
C        0.0224627434    0.0200616360    0.0000000000
N       -0.8302938078   -0.7417296122    0.0000000000
H        0.8078310644    0.7216679761   -0.0000000000
3    
Image 9/11, Energy =   -92.8282029784 (+0.008 kcal/mol)
C        0.0261503918    0.0176462147    0.0000000000
N       -0.9265700716   -0.6196594531    0.0000000000
H        0.9004196799    0.6020132384   -0.0000000000
3    
Image 10/11, Energy =   -92.8275480229 (+0.419 kcal/mol)
C        0.0194260556    0.0213642891    0.0000000000
N       -0.7589320377   -0.8347584640    0.0000000000
H        0.7395059821    0.8133941749    0.0000000000
