3    
Image 0/11, Energy =   -92.8141878354 (+8.384 kcal/mol)
C       -0.7519862184   -0.8272338399    0.0000000000
N        0.0394753354    0.0434721365    0.0000000000
H        0.7125108830    0.7837617034    0.0000000000
3    
Image 1/11, Energy =   -92.8106496063 (+10.604 kcal/mol)
C       -0.6779110083   -0.8532110942    0.0000000000
N       -0.0685006191    0.1524216645    0.0000000000
H        0.7464116274    0.7007894297    0.0000000000
3    
Image 2/11, Energy =   -92.7828386470 (+28.056 kcal/mol)
C       -0.5064922388   -0.8265360997    0.0000000000
N       -0.2422098314    0.3233822889    0.0000000000
H        0.7487020703    0.5031538107   -0.0000000000
3    
Image 3/11, Energy =   -92.7513396662 (+47.821 kcal/mol)
C       -0.3383296058   -0.7795873345   -0.0000000000
N       -0.3877551883    0.4154639157   -0.0000000000
H        0.7260847941    0.3641234188    0.0000000000
3    
Image 4/11, Energy =   -92.6902099926 (+86.181 kcal/mol)
C       -0.1803102882   -0.8249244799    0.0000000000
N       -0.6630572752    0.3771007120    0.0000000000
H        0.8433675634    0.4478237679   -0.0000000000
3    
Image 5/11, Energy =   -92.7450051743 (+51.796 kcal/mol)
C        0.0395264082   -0.5107769117    0.0000000000
N       -0.8818637454    0.2455272881   -0.0000000000
H        0.8423373372    0.2652496236   -0.0000000000
3    
Image 6/11, Energy =   -92.7919977082 (+22.308 kcal/mol)
C        0.0888900141   -0.2658600962    0.0000000000
N       -1.0023779737   -0.1498504866   -0.0000000000
H        0.9134879596    0.4157105828   -0.0000000000
3    
Image 7/11, Energy =   -92.8180933471 (+5.933 kcal/mol)
C        0.1197604380   -0.1291788024   -0.0000000000
N       -0.9880381689   -0.4635499043   -0.0000000000
H        0.8682777310    0.5927287067   -0.0000000000
3    
Image 8/11, Energy =   -92.8158485540 (+7.342 kcal/mol)
C        0.0093712085   -0.0371673859    0.0000000000
N       -0.8305976838   -0.7668102303   -0.0000000000
H        0.8212264754    0.8039776162   -0.0000000000
3    
Image 9/11, Energy =   -92.7606391695 (+41.986 kcal/mol)
C        0.1092763416   -0.0996423691    0.0000000000
N       -0.8075362475   -0.5573896050    0.0000000000
H        0.6982599059    0.6570319741    0.0000000000
3    
Image 10/11, Energy =   -92.8275480229 (+0.000 kcal/mol)
C        0.0194260556    0.0213642891    0.0000000000
N       -0.7589320377   -0.8347584640    0.0000000000
H        0.7395059821    0.8133941749    0.0000000000
