3    
Image 0/11, Energy =   -92.8141878354 (+8.803 kcal/mol)
C       -0.7519862184   -0.8272338399    0.0000000000
N        0.0394753354    0.0434721365    0.0000000000
H        0.7125108830    0.7837617034    0.0000000000
3    
Image 1/11, Energy =   -92.8039367778 (+15.235 kcal/mol)
C       -0.4282783614   -0.9628289443   -0.0000000000
N       -0.1727911632    0.1814339918   -0.0000000000
H        0.6010695245    0.7813949525    0.0000000000
3    
Image 2/11, Energy =   -92.7724151686 (+35.015 kcal/mol)
C       -0.2590580442   -0.8937586885   -0.0000000000
N       -0.3561324636    0.2947080983   -0.0000000000
H        0.6151905077    0.5990505902    0.0000000000
3    
Image 3/11, Energy =   -92.7428953484 (+53.539 kcal/mol)
C       -0.1249284595   -0.7881351075   -0.0000000000
N       -0.4987861411    0.3454727308   -0.0000000000
H        0.6237146006    0.4426623767    0.0000000000
3    
Image 4/11, Energy =   -92.7236064005 (+65.643 kcal/mol)
C       -0.0250390230   -0.6468878929   -0.0000000000
N       -0.6887092097    0.3373228872   -0.0000000000
H        0.7137482327    0.3095650057    0.0000000000
3    
Image 5/11, Energy =   -92.7618714399 (+41.632 kcal/mol)
C        0.0158150246   -0.4393185236   -0.0000000000
N       -0.9058567142    0.2620782632   -0.0000000000
H        0.8900416896    0.1772402604    0.0000000000
3    
Image 6/11, Energy =   -92.8199452594 (+5.190 kcal/mol)
C        0.0258631658   -0.1568226410   -0.0000000000
N       -1.0762535975    0.1395416140   -0.0000000000
H        1.0503904317    0.0172810270    0.0000000000
3    
Image 7/11, Energy =   -92.8282118897 (+0.002 kcal/mol)
C        0.0304599947    0.0040129648    0.0000000000
N       -1.0809240881   -0.2672161263   -0.0000000000
H        1.0504640933    0.2632031614    0.0000000000
3    
Image 8/11, Energy =   -92.8282152908 (+0.000 kcal/mol)
C        0.0264881097    0.0152703858    0.0000000000
N       -0.9828042658   -0.5232366136    0.0000000000
H        0.9563161561    0.5079662279    0.0000000000
3    
Image 9/11, Energy =   -92.8282158187 (+0.000 kcal/mol)
C        0.0235918575    0.0192599684    0.0000000000
N       -0.8615339848   -0.7057764888    0.0000000000
H        0.8379421273    0.6865165204   -0.0000000000
3    
Image 10/11, Energy =   -92.8275480229 (+0.419 kcal/mol)
C        0.0194260556    0.0213642891    0.0000000000
N       -0.7589320377   -0.8347584640    0.0000000000
H        0.7395059821    0.8133941749    0.0000000000
