3    
Image 0/11, Energy =   -92.8141878354 (+8.803 kcal/mol)
C       -0.7519862184   -0.8272338399    0.0000000000
N        0.0394753354    0.0434721365    0.0000000000
H        0.7125108830    0.7837617034    0.0000000000
3    
Image 1/11, Energy =   -92.8039505916 (+15.227 kcal/mol)
C       -0.4309381766   -0.9619621698   -0.0000000000
N       -0.1725245002    0.1818083471   -0.0000000000
H        0.6034626768    0.7801538227    0.0000000000
3    
Image 2/11, Energy =   -92.7747654036 (+33.541 kcal/mol)
C       -0.2800548547   -0.8975145154   -0.0000000000
N       -0.3461365292    0.2892320224   -0.0000000000
H        0.6261913839    0.6082824930    0.0000000000
3    
Image 3/11, Energy =   -92.7236145556 (+65.638 kcal/mol)
C       -0.0268867486   -0.6511034395   -0.0000000000
N       -0.6838824494    0.3383187172   -0.0000000000
H        0.7107691980    0.3127847223    0.0000000000
3    
Image 4/11, Energy =   -92.7592209484 (+43.295 kcal/mol)
C        0.0163010615   -0.4490222147   -0.0000000000
N       -0.8985643137    0.2627582000   -0.0000000000
H        0.8822632521    0.1862640147    0.0000000000
3    
Image 5/11, Energy =   -92.8230404507 (+3.248 kcal/mol)
C        0.0267324834   -0.1246091043   -0.0000000000
N       -1.0867247306    0.1246413046   -0.0000000000
H        1.0599922471   -0.0000322003    0.0000000000
3    
Image 6/11, Energy =   -92.8282149688 (+0.000 kcal/mol)
C        0.0293381190    0.0068437325   -0.0000000000
N       -1.0794114537   -0.2742159197   -0.0000000000
H        1.0500733347    0.2673721872    0.0000000000
3    
Image 7/11, Energy =   -92.8282152908 (+0.000 kcal/mol)
C        0.0264881097    0.0152703858    0.0000000000
N       -0.9828042658   -0.5232366136    0.0000000000
H        0.9563161561    0.5079662279    0.0000000000
3    
Image 8/11, Energy =   -92.8282156727 (+0.000 kcal/mol)
C        0.0230867992    0.0201187443    0.0000000000
N       -0.8393734962   -0.7319898725    0.0000000000
H        0.8162866970    0.7118711282   -0.0000000000
3    
Image 9/11, Energy =   -92.8282139167 (+0.001 kcal/mol)
C        0.0249763596    0.0182300674    0.0000000000
N       -0.9179987520   -0.6309718975    0.0000000000
H        0.8930223924    0.6127418301   -0.0000000000
3    
Image 10/11, Energy =   -92.8275480229 (+0.419 kcal/mol)
C        0.0194260556    0.0213642891    0.0000000000
N       -0.7589320377   -0.8347584640    0.0000000000
H        0.7395059821    0.8133941749    0.0000000000
