3    
Image 0/11, Energy =   -92.8141878354 (+8.803 kcal/mol)
C       -0.7519862184   -0.8272338399    0.0000000000
N        0.0394753354    0.0434721365    0.0000000000
H        0.7125108830    0.7837617034    0.0000000000
3    
Image 1/11, Energy =   -92.8145624627 (+8.568 kcal/mol)
C       -0.5828994896   -0.9346466091    0.0000000000
N       -0.0015675090    0.0751608270    0.0000000000
H        0.5844669985    0.8594857820   -0.0000000000
3    
Image 2/11, Energy =   -92.7981087522 (+18.892 kcal/mol)
C       -0.3600604483   -0.9656352019   -0.0000000000
N       -0.2247951358    0.2036230606   -0.0000000000
H        0.5848555841    0.7620121413   -0.0000000000
3    
Image 3/11, Energy =   -92.7687391953 (+37.322 kcal/mol)
C       -0.2350996447   -0.8854691937   -0.0000000000
N       -0.3791006847    0.2973786301    0.0000000000
H        0.6142003294    0.5880905637   -0.0000000000
3    
Image 4/11, Energy =   -92.7236041327 (+65.645 kcal/mol)
C       -0.0125088538   -0.6460387050   -0.0000000000
N       -0.6941562390    0.3255318992    0.0000000000
H        0.7066650928    0.3205068058   -0.0000000000
3    
Image 5/11, Energy =   -92.7508341966 (+48.558 kcal/mol)
C        0.0218158074   -0.4793856870   -0.0000000000
N       -0.8753165347    0.2619737392    0.0000000000
H        0.8535007273    0.2174119479   -0.0000000000
3    
Image 6/11, Energy =   -92.8089230813 (+12.106 kcal/mol)
C        0.0293748887   -0.2363701674   -0.0000000000
N       -1.0456963439    0.1517331650    0.0000000000
H        1.0163214552    0.0846370024   -0.0000000000
3    
Image 7/11, Energy =   -92.8281205013 (+0.060 kcal/mol)
C        0.0312110449   -0.0161320373   -0.0000000000
N       -1.1123456726   -0.0235757880   -0.0000000000
H        1.0811346277    0.0397078254   -0.0000000000
3    
Image 8/11, Energy =   -92.8282147870 (+0.001 kcal/mol)
C        0.0279928000    0.0126465440   -0.0000000000
N       -0.9981789090   -0.4928874893   -0.0000000000
H        0.9701861090    0.4802409454    0.0000000000
3    
Image 9/11, Energy =   -92.8282156559 (+0.000 kcal/mol)
C        0.0224812053    0.0205070626    0.0000000000
N       -0.8054170480   -0.7691461277   -0.0000000000
H        0.7829358427    0.7486390651   -0.0000000000
3    
Image 10/11, Energy =   -92.8275480229 (+0.419 kcal/mol)
C        0.0194260556    0.0213642891    0.0000000000
N       -0.7589320377   -0.8347584640    0.0000000000
H        0.7395059821    0.8133941749    0.0000000000
