3    
Image 0/11, Energy =   -92.8141878354 (+8.802 kcal/mol)
C       -0.7519862184   -0.8272338399    0.0000000000
N        0.0394753354    0.0434721365    0.0000000000
H        0.7125108830    0.7837617034    0.0000000000
3    
Image 1/11, Energy =   -92.8139630367 (+8.943 kcal/mol)
C       -0.6248699733   -0.9038557921    0.0000000000
N       -0.0199762416    0.0937856599   -0.0000000000
H        0.6448462149    0.8100701322    0.0000000000
3    
Image 2/11, Energy =   -92.7984208570 (+18.696 kcal/mol)
C       -0.3525950358   -0.9697272049   -0.0000000000
N       -0.2247655317    0.1999876606    0.0000000000
H        0.5773605675    0.7697395443    0.0000000000
3    
Image 3/11, Energy =   -92.7726451299 (+34.871 kcal/mol)
C       -0.2334901557   -0.9019022480   -0.0000000000
N       -0.3671950816    0.2802092239    0.0000000000
H        0.6006852373    0.6216930241    0.0000000000
3    
Image 4/11, Energy =   -92.7235699419 (+65.666 kcal/mol)
C       -0.0180328828   -0.6518853425   -0.0000000000
N       -0.6922437899    0.3248049654    0.0000000000
H        0.7102766728    0.3270803771    0.0000000000
3    
Image 5/11, Energy =   -92.7533030928 (+47.008 kcal/mol)
C        0.0227089569   -0.4707274867   -0.0000000000
N       -0.8844319205    0.2558129237    0.0000000000
H        0.8617229636    0.2149145630    0.0000000000
3    
Image 6/11, Energy =   -92.8089058787 (+12.117 kcal/mol)
C        0.0280343348   -0.2365747364   -0.0000000000
N       -1.0447425698    0.1571787653    0.0000000000
H        1.0167082351    0.0793959712    0.0000000000
3    
Image 7/11, Energy =   -92.8281881633 (+0.017 kcal/mol)
C        0.0307432309   -0.0078050692   -0.0000000000
N       -1.1122250251   -0.0367336761    0.0000000000
H        1.0814817942    0.0445387453    0.0000000000
3    
Image 8/11, Energy =   -92.8282115641 (+0.002 kcal/mol)
C        0.0278570418    0.0116169258    0.0000000000
N       -0.9936847386   -0.5013990321    0.0000000000
H        0.9658276969    0.4897821063   -0.0000000000
3    
Image 9/11, Energy =   -92.8282149805 (+0.000 kcal/mol)
C        0.0210470166    0.0223153438    0.0000000000
N       -0.7990347643   -0.7754244714   -0.0000000000
H        0.7779877476    0.7531091278   -0.0000000000
3    
Image 10/11, Energy =   -92.8275480229 (+0.419 kcal/mol)
C        0.0194260556    0.0213642891    0.0000000000
N       -0.7589320378   -0.8347584640    0.0000000000
H        0.7395059821    0.8133941749    0.0000000000
