3    
Image 0/11, Energy =   -92.8141878354 (+8.802 kcal/mol)
C       -0.7519862184   -0.8272338399    0.0000000000
N        0.0394753354    0.0434721365    0.0000000000
H        0.7125108830    0.7837617034    0.0000000000
3    
Image 1/11, Energy =   -92.8129556746 (+9.575 kcal/mol)
C       -0.6385967490   -0.8879250445    0.0000000000
N       -0.0427089209    0.1140336205   -0.0000000000
H        0.6813056698    0.7738914240    0.0000000000
3    
Image 2/11, Energy =   -92.7976750949 (+19.164 kcal/mol)
C       -0.3720541264   -0.9591817262   -0.0000000000
N       -0.2252893126    0.2084045501    0.0000000000
H        0.5973434391    0.7507771761    0.0000000000
3    
Image 3/11, Energy =   -92.7730535620 (+34.614 kcal/mol)
C       -0.2307678980   -0.9035101215   -0.0000000000
N       -0.3651136296    0.2780709249    0.0000000000
H        0.5958815277    0.6254391966    0.0000000000
3    
Image 4/11, Energy =   -92.7253447249 (+64.552 kcal/mol)
C       -0.0224168669   -0.6844469883   -0.0000000000
N       -0.6430436755    0.3317952096    0.0000000000
H        0.6654605424    0.3526517788    0.0000000000
3    
Image 5/11, Energy =   -92.7527933800 (+47.328 kcal/mol)
C        0.0225718062   -0.4723746072   -0.0000000000
N       -0.8822761766    0.2586296345    0.0000000000
H        0.8597043704    0.2137449726    0.0000000000
3    
Image 6/11, Energy =   -92.8090983653 (+11.996 kcal/mol)
C        0.0234494871   -0.2361335177   -0.0000000000
N       -1.0419020415    0.1815613011    0.0000000000
H        1.0184525545    0.0545722166    0.0000000000
3    
Image 7/11, Energy =   -92.8281565147 (+0.037 kcal/mol)
C        0.0324040534   -0.0107837517   -0.0000000000
N       -1.1124408847   -0.0408312274    0.0000000000
H        1.0800368313    0.0516149791    0.0000000000
3    
Image 8/11, Energy =   -92.8281828960 (+0.020 kcal/mol)
C        0.0234389259    0.0226198454   -0.0000000000
N       -0.9918597899   -0.5069592152    0.0000000000
H        0.9684208640    0.4843393699   -0.0000000000
3    
Image 9/11, Energy =   -92.8282149805 (+0.000 kcal/mol)
C        0.0210470166    0.0223153438    0.0000000000
N       -0.7990347643   -0.7754244714   -0.0000000000
H        0.7779877476    0.7531091278   -0.0000000000
3    
Image 10/11, Energy =   -92.8275480229 (+0.419 kcal/mol)
C        0.0194260556    0.0213642891    0.0000000000
N       -0.7589320378   -0.8347584640    0.0000000000
H        0.7395059821    0.8133941749    0.0000000000
