3    
Image 0/11, Energy =   -92.8141878354 (+8.803 kcal/mol)
C       -0.7519862184   -0.8272338399    0.0000000000
N        0.0394753354    0.0434721365    0.0000000000
H        0.7125108830    0.7837617034    0.0000000000
3    
Image 1/11, Energy =   -92.8147098678 (+8.475 kcal/mol)
C       -0.5655374576   -0.9461472068    0.0000000000
N        0.0063740099    0.0688348802    0.0000000000
H        0.5591634478    0.8773123265   -0.0000000000
3    
Image 2/11, Energy =   -92.7981222064 (+18.884 kcal/mol)
C       -0.3772744899   -0.9592554988   -0.0000000000
N       -0.2214100201    0.2074351507    0.0000000000
H        0.5986845100    0.7518203481   -0.0000000000
3    
Image 3/11, Energy =   -92.7678241920 (+37.896 kcal/mol)
C       -0.2378722974   -0.8807904619   -0.0000000000
N       -0.3812065988    0.3018633586    0.0000000000
H        0.6190788962    0.5789271034   -0.0000000000
3    
Image 4/11, Energy =   -92.7236060378 (+65.644 kcal/mol)
C       -0.0151491532   -0.6492067925   -0.0000000000
N       -0.6917930936    0.3262709265    0.0000000000
H        0.7069422468    0.3229358660   -0.0000000000
3    
Image 5/11, Energy =   -92.7508553860 (+48.544 kcal/mol)
C        0.0211180173   -0.4797960243   -0.0000000000
N       -0.8754720849    0.2625125221    0.0000000000
H        0.8543540676    0.2172835022   -0.0000000000
3    
Image 6/11, Energy =   -92.8089230813 (+12.106 kcal/mol)
C        0.0293748887   -0.2363701674   -0.0000000000
N       -1.0456963439    0.1517331650    0.0000000000
H        1.0163214552    0.0846370024   -0.0000000000
3    
Image 7/11, Energy =   -92.8281205013 (+0.060 kcal/mol)
C        0.0312110449   -0.0161320373   -0.0000000000
N       -1.1123456726   -0.0235757880   -0.0000000000
H        1.0811346277    0.0397078254   -0.0000000000
3    
Image 8/11, Energy =   -92.8282147870 (+0.001 kcal/mol)
C        0.0279928000    0.0126465440   -0.0000000000
N       -0.9981789090   -0.4928874893   -0.0000000000
H        0.9701861090    0.4802409454    0.0000000000
3    
Image 9/11, Energy =   -92.8282156559 (+0.000 kcal/mol)
C        0.0224812053    0.0205070626    0.0000000000
N       -0.8054170480   -0.7691461277   -0.0000000000
H        0.7829358427    0.7486390651   -0.0000000000
3    
Image 10/11, Energy =   -92.8275480229 (+0.419 kcal/mol)
C        0.0194260556    0.0213642891    0.0000000000
N       -0.7589320377   -0.8347584640    0.0000000000
H        0.7395059821    0.8133941749    0.0000000000
