3    
Image 0/11, Energy =   -92.8141878354 (+8.803 kcal/mol)
C       -0.7519862184   -0.8272338399    0.0000000000
N        0.0394753354    0.0434721365    0.0000000000
H        0.7125108830    0.7837617034    0.0000000000
3    
Image 1/11, Energy =   -92.8039505916 (+15.227 kcal/mol)
C       -0.4309381766   -0.9619621698   -0.0000000000
N       -0.1725245002    0.1818083471   -0.0000000000
H        0.6034626768    0.7801538227    0.0000000000
3    
Image 2/11, Energy =   -92.7744540336 (+33.736 kcal/mol)
C       -0.2780438043   -0.8966616412   -0.0000000000
N       -0.3467742625    0.2907263397   -0.0000000000
H        0.6248180667    0.6059353015    0.0000000000
3    
Image 3/11, Energy =   -92.7235727758 (+65.664 kcal/mol)
C       -0.0223787689   -0.6480743743   -0.0000000000
N       -0.6829351095    0.3397950529   -0.0000000000
H        0.7053138784    0.3082793214    0.0000000000
3    
Image 4/11, Energy =   -92.7599370042 (+42.846 kcal/mol)
C        0.0171903243   -0.4453826102   -0.0000000000
N       -0.9001719443    0.2617200758   -0.0000000000
H        0.8829816200    0.1836625343    0.0000000000
3    
Image 5/11, Energy =   -92.8223710372 (+3.668 kcal/mol)
C        0.0260862777   -0.1325169516   -0.0000000000
N       -1.0838411065    0.1350409539   -0.0000000000
H        1.0577548287   -0.0025240023    0.0000000000
3    
Image 6/11, Energy =   -92.8282101881 (+0.003 kcal/mol)
C        0.0300676948    0.0049478896   -0.0000000000
N       -1.0784614453   -0.2738824521   -0.0000000000
H        1.0483937505    0.2689345625    0.0000000000
3    
Image 7/11, Energy =   -92.8282152908 (+0.000 kcal/mol)
C        0.0264881097    0.0152703858    0.0000000000
N       -0.9828042658   -0.5232366136    0.0000000000
H        0.9563161561    0.5079662279    0.0000000000
3    
Image 8/11, Energy =   -92.8282157636 (+0.000 kcal/mol)
C        0.0233290790    0.0197412321    0.0000000000
N       -0.8499193937   -0.7197269556    0.0000000000
H        0.8265903147    0.6999857235   -0.0000000000
3    
Image 9/11, Energy =   -92.8282145583 (+0.001 kcal/mol)
C        0.0246259929    0.0184744302    0.0000000000
N       -0.9085174100   -0.6445934805    0.0000000000
H        0.8838914171    0.6261190503   -0.0000000000
3    
Image 10/11, Energy =   -92.8275480229 (+0.419 kcal/mol)
C        0.0194260556    0.0213642891    0.0000000000
N       -0.7589320377   -0.8347584640    0.0000000000
H        0.7395059821    0.8133941749    0.0000000000
