3    
Image 0/11, Energy =   -92.8141878354 (+8.803 kcal/mol)
C       -0.7519862184   -0.8272338399    0.0000000000
N        0.0394753354    0.0434721365    0.0000000000
H        0.7125108830    0.7837617034    0.0000000000
3    
Image 1/11, Energy =   -92.8039694307 (+15.215 kcal/mol)
C       -0.4303850519   -0.9619796302   -0.0000000000
N       -0.1723518558    0.1814002232   -0.0000000000
H        0.6027369077    0.7805794070    0.0000000000
3    
Image 2/11, Energy =   -92.7723132697 (+35.079 kcal/mol)
C       -0.2631751691   -0.8929039107   -0.0000000000
N       -0.3557276403    0.2972183756   -0.0000000000
H        0.6189028093    0.5956855351    0.0000000000
3    
Image 3/11, Energy =   -92.7428154443 (+53.590 kcal/mol)
C       -0.1292311055   -0.7872624538   -0.0000000000
N       -0.4988662184    0.3447255589   -0.0000000000
H        0.6280973239    0.4425368949    0.0000000000
3    
Image 4/11, Energy =   -92.7236079803 (+65.642 kcal/mol)
C       -0.0249254054   -0.6464187062   -0.0000000000
N       -0.6896716857    0.3371376777   -0.0000000000
H        0.7145970912    0.3092810285    0.0000000000
3    
Image 5/11, Energy =   -92.7618436729 (+41.649 kcal/mol)
C        0.0159778386   -0.4396208845   -0.0000000000
N       -0.9059642678    0.2624520077   -0.0000000000
H        0.8899864291    0.1771688768    0.0000000000
3    
Image 6/11, Energy =   -92.8200711126 (+5.111 kcal/mol)
C        0.0251571258   -0.1556365592   -0.0000000000
N       -1.0759969241    0.1425507648   -0.0000000000
H        1.0508397983    0.0130857944    0.0000000000
3    
Image 7/11, Energy =   -92.8281044059 (+0.070 kcal/mol)
C        0.0273595025    0.0031333298    0.0000000000
N       -1.0781523000   -0.2675924009   -0.0000000000
H        1.0507927975    0.2644590711    0.0000000000
3    
Image 8/11, Energy =   -92.8282152908 (+0.000 kcal/mol)
C        0.0264881097    0.0152703858    0.0000000000
N       -0.9828042658   -0.5232366136    0.0000000000
H        0.9563161561    0.5079662279    0.0000000000
3    
Image 9/11, Energy =   -92.8282158187 (+0.000 kcal/mol)
C        0.0235918575    0.0192599684    0.0000000000
N       -0.8615339848   -0.7057764888    0.0000000000
H        0.8379421273    0.6865165204   -0.0000000000
3    
Image 10/11, Energy =   -92.8275480229 (+0.419 kcal/mol)
C        0.0194260556    0.0213642891    0.0000000000
N       -0.7589320377   -0.8347584640    0.0000000000
H        0.7395059821    0.8133941749    0.0000000000
