3    
Image 0/11, Energy =   -92.8141878354 (+8.803 kcal/mol)
C       -0.7519862184   -0.8272338399    0.0000000000
N        0.0394753354    0.0434721365    0.0000000000
H        0.7125108830    0.7837617034    0.0000000000
3    
Image 1/11, Energy =   -92.8039505916 (+15.227 kcal/mol)
C       -0.4309381766   -0.9619621698   -0.0000000000
N       -0.1725245002    0.1818083471   -0.0000000000
H        0.6034626768    0.7801538227    0.0000000000
3    
Image 2/11, Energy =   -92.7748899483 (+33.462 kcal/mol)
C       -0.2803331643   -0.8978076769   -0.0000000000
N       -0.3452976819    0.2890358450   -0.0000000000
H        0.6256308462    0.6087718319    0.0000000000
3    
Image 3/11, Energy =   -92.7236010618 (+65.647 kcal/mol)
C       -0.0252298088   -0.6482092698   -0.0000000000
N       -0.6885889724    0.3379526637   -0.0000000000
H        0.7138187811    0.3102566061    0.0000000000
3    
Image 4/11, Energy =   -92.7574601004 (+44.400 kcal/mol)
C        0.0150076396   -0.4556616682   -0.0000000000
N       -0.8925113252    0.2683520610   -0.0000000000
H        0.8775036856    0.1873096072    0.0000000000
3    
Image 5/11, Energy =   -92.8243887753 (+2.401 kcal/mol)
C        0.0306747404   -0.1067168626   -0.0000000000
N       -1.0949506431    0.0827791816   -0.0000000000
H        1.0642759027    0.0239376810    0.0000000000
3    
Image 6/11, Energy =   -92.8282089579 (+0.004 kcal/mol)
C        0.0292946968    0.0111092233   -0.0000000000
N       -1.0803574103   -0.2702738688   -0.0000000000
H        1.0510627135    0.2591646454    0.0000000000
3    
Image 7/11, Energy =   -92.8282152908 (+0.000 kcal/mol)
C        0.0264881097    0.0152703858    0.0000000000
N       -0.9828042658   -0.5232366136    0.0000000000
H        0.9563161561    0.5079662279    0.0000000000
3    
Image 8/11, Energy =   -92.8282156931 (+0.000 kcal/mol)
C        0.0222741247    0.0209788709    0.0000000000
N       -0.8142556363   -0.7595050000    0.0000000000
H        0.7919815116    0.7385261291   -0.0000000000
3    
Image 9/11, Energy =   -92.8282154919 (+0.000 kcal/mol)
C        0.0261967590    0.0155805675    0.0000000000
N       -0.9395480924   -0.5976283742    0.0000000000
H        0.9133513335    0.5820478067   -0.0000000000
3    
Image 10/11, Energy =   -92.8275480229 (+0.419 kcal/mol)
C        0.0194260556    0.0213642891    0.0000000000
N       -0.7589320377   -0.8347584640    0.0000000000
H        0.7395059821    0.8133941749    0.0000000000
