3    
Image 0/11, Energy =   -92.8141878354 (+8.802 kcal/mol)
C       -0.7519862184   -0.8272338399    0.0000000000
N        0.0394753354    0.0434721365    0.0000000000
H        0.7125108830    0.7837617034    0.0000000000
3    
Image 1/11, Energy =   -92.8122837108 (+9.997 kcal/mol)
C       -0.6441243775   -0.8810447403    0.0000000000
N       -0.0528101663    0.1263806469   -0.0000000000
H        0.6969345438    0.7546640934    0.0000000000
3    
Image 2/11, Energy =   -92.7973429268 (+19.373 kcal/mol)
C       -0.3838907700   -0.9545313187   -0.0000000000
N       -0.2205090001    0.2157195454    0.0000000000
H        0.6043997701    0.7388117733    0.0000000000
3    
Image 3/11, Energy =   -92.7733167673 (+34.449 kcal/mol)
C       -0.2288626548   -0.9066332483   -0.0000000000
N       -0.3623894837    0.2801981352    0.0000000000
H        0.5912521385    0.6264351131    0.0000000000
3    
Image 4/11, Energy =   -92.7310715848 (+60.958 kcal/mol)
C       -0.0473767216   -0.7279614447   -0.0000000000
N       -0.5855898570    0.3272685214    0.0000000000
H        0.6329665786    0.4006929234    0.0000000000
3    
Image 5/11, Energy =   -92.7522366016 (+47.677 kcal/mol)
C        0.0116422861   -0.4697050684   -0.0000000000
N       -0.8748864345    0.2627258758    0.0000000000
H        0.8632441484    0.2069791926    0.0000000000
3    
Image 6/11, Energy =   -92.8090953296 (+11.998 kcal/mol)
C        0.0208799372   -0.2347720378   -0.0000000000
N       -1.0375233283    0.1991779838    0.0000000000
H        1.0166433912    0.0355940541    0.0000000000
3    
Image 7/11, Energy =   -92.8280800676 (+0.085 kcal/mol)
C        0.0351003010   -0.0079519900   -0.0000000000
N       -1.1122265256   -0.0411809942    0.0000000000
H        1.0771262246    0.0491329842    0.0000000000
3    
Image 8/11, Energy =   -92.8280382727 (+0.111 kcal/mol)
C        0.0174797127    0.0345639274   -0.0000000000
N       -0.9873624477   -0.5111142355    0.0000000000
H        0.9698827350    0.4765503081   -0.0000000000
3    
Image 9/11, Energy =   -92.8282149805 (+0.000 kcal/mol)
C        0.0210470166    0.0223153438    0.0000000000
N       -0.7990347643   -0.7754244714   -0.0000000000
H        0.7779877476    0.7531091278   -0.0000000000
3    
Image 10/11, Energy =   -92.8275480229 (+0.419 kcal/mol)
C        0.0194260556    0.0213642891    0.0000000000
N       -0.7589320378   -0.8347584640    0.0000000000
H        0.7395059821    0.8133941749    0.0000000000
