3    
Image 0/11, Energy =   -92.8141878354 (+8.803 kcal/mol)
C       -0.7519862184   -0.8272338399    0.0000000000
N        0.0394753354    0.0434721365    0.0000000000
H        0.7125108830    0.7837617034    0.0000000000
3    
Image 1/11, Energy =   -92.8134427351 (+9.270 kcal/mol)
C       -0.6232992845   -0.9033455681    0.0000000000
N       -0.0331791947    0.1054558626    0.0000000000
H        0.6564784792    0.7978897055   -0.0000000000
3    
Image 2/11, Energy =   -92.7972649132 (+19.422 kcal/mol)
C       -0.3607849902   -0.9623705437    0.0000000000
N       -0.2296611770    0.2088893700    0.0000000000
H        0.5904461672    0.7534811737   -0.0000000000
3    
Image 3/11, Energy =   -92.7701692211 (+36.425 kcal/mol)
C       -0.2248199831   -0.8935516779   -0.0000000000
N       -0.3773308673    0.2870654288    0.0000000000
H        0.6021508504    0.6064862491   -0.0000000000
3    
Image 4/11, Energy =   -92.7235448638 (+65.682 kcal/mol)
C       -0.0098362298   -0.6453400743   -0.0000000000
N       -0.6903002374    0.3266713063    0.0000000000
H        0.7001364672    0.3186687680   -0.0000000000
3    
Image 5/11, Energy =   -92.7502893014 (+48.900 kcal/mol)
C        0.0237461391   -0.4814903620   -0.0000000000
N       -0.8744635932    0.2613245690    0.0000000000
H        0.8507174541    0.2201657930   -0.0000000000
3    
Image 6/11, Energy =   -92.8100156259 (+11.421 kcal/mol)
C        0.0283535622   -0.2296418733   -0.0000000000
N       -1.0478200185    0.1554399971    0.0000000000
H        1.0194664563    0.0742018762   -0.0000000000
3    
Image 7/11, Energy =   -92.8280499487 (+0.104 kcal/mol)
C        0.0316792051   -0.0210062580   -0.0000000000
N       -1.1113246976   -0.0330637320   -0.0000000000
H        1.0796454925    0.0540699901   -0.0000000000
3    
Image 8/11, Energy =   -92.8282078296 (+0.005 kcal/mol)
C        0.0282185289    0.0140120352   -0.0000000000
N       -0.9981162404   -0.4949199180   -0.0000000000
H        0.9698977115    0.4809078828    0.0000000000
3    
Image 9/11, Energy =   -92.8282156559 (+0.000 kcal/mol)
C        0.0224812053    0.0205070626    0.0000000000
N       -0.8054170480   -0.7691461277   -0.0000000000
H        0.7829358427    0.7486390651   -0.0000000000
3    
Image 10/11, Energy =   -92.8275480229 (+0.419 kcal/mol)
C        0.0194260556    0.0213642891    0.0000000000
N       -0.7589320377   -0.8347584640    0.0000000000
H        0.7395059821    0.8133941749    0.0000000000
