3    
Image 0/11, Energy =   -92.8141878354 (+8.794 kcal/mol)
C       -0.7519862184   -0.8272338399    0.0000000000
N        0.0394753354    0.0434721365    0.0000000000
H        0.7125108830    0.7837617034    0.0000000000
3    
Image 1/11, Energy =   -92.8108847719 (+10.867 kcal/mol)
C       -0.6747229434   -0.8431810192    0.0000000000
N       -0.0613513134    0.1459026619    0.0000000000
H        0.7360742568    0.6972783573    0.0000000000
3    
Image 2/11, Energy =   -92.7830287577 (+28.346 kcal/mol)
C       -0.4977124700   -0.8360682035    0.0000000000
N       -0.2447809919    0.3241101779   -0.0000000000
H        0.7424934619    0.5119580256   -0.0000000000
3    
Image 3/11, Energy =   -92.7595472998 (+43.081 kcal/mol)
C       -0.3411374446   -0.8130703554   -0.0000000000
N       -0.3681300322    0.3770453832    0.0000000000
H        0.7092674768    0.4360249722   -0.0000000000
3    
Image 4/11, Energy =   -92.7264397592 (+63.857 kcal/mol)
C       -0.1343488253   -0.7507702787    0.0000000000
N       -0.5907519888    0.3484221439    0.0000000000
H        0.7251008141    0.4023481348   -0.0000000000
3    
Image 5/11, Energy =   -92.7484954167 (+50.016 kcal/mol)
C        0.0100144565   -0.4959891133    0.0000000000
N       -0.8861103522    0.2407301433   -0.0000000000
H        0.8760958957    0.2552589700   -0.0000000000
3    
Image 6/11, Energy =   -92.8076077483 (+12.923 kcal/mol)
C        0.0977668579   -0.2287579633    0.0000000000
N       -1.0573278629   -0.1248305923   -0.0000000000
H        0.9595610050    0.3535885556    0.0000000000
3    
Image 7/11, Energy =   -92.8235270164 (+2.933 kcal/mol)
C        0.0805360023   -0.0883837534   -0.0000000000
N       -0.9878992162   -0.4729071237   -0.0000000000
H        0.9073632139    0.5612908771    0.0000000000
3    
Image 8/11, Energy =   -92.8282016813 (+0.000 kcal/mol)
C        0.0198585337    0.0242413499    0.0000000000
N       -0.8026500386   -0.7738165046   -0.0000000000
H        0.7827915049    0.7495751546   -0.0000000000
3    
Image 9/11, Energy =   -92.8221106078 (+3.822 kcal/mol)
C        0.1124293966   -0.0707376651   -0.0000000000
N       -0.8391913836   -0.7367073341    0.0000000000
H        0.7267619869    0.8074449992    0.0000000000
3    
Image 10/11, Energy =   -92.8275480229 (+0.410 kcal/mol)
C        0.0194260556    0.0213642891    0.0000000000
N       -0.7589320377   -0.8347584640    0.0000000000
H        0.7395059821    0.8133941749    0.0000000000
