3    
Image 0/11, Energy =   -92.8141878354 (+8.803 kcal/mol)
C       -0.7519862184   -0.8272338399    0.0000000000
N        0.0394753354    0.0434721365    0.0000000000
H        0.7125108830    0.7837617034    0.0000000000
3    
Image 1/11, Energy =   -92.8124288042 (+9.906 kcal/mol)
C       -0.6373013898   -0.8858376829    0.0000000000
N       -0.0518129125    0.1230790733    0.0000000000
H        0.6891143023    0.7627586096   -0.0000000000
3    
Image 2/11, Energy =   -92.7964962381 (+19.904 kcal/mol)
C       -0.3848473968   -0.9492969179   -0.0000000000
N       -0.2285607688    0.2185026004    0.0000000000
H        0.6134081656    0.7307943175   -0.0000000000
3    
Image 3/11, Energy =   -92.7705233384 (+36.202 kcal/mol)
C       -0.2272480231   -0.8942113731   -0.0000000000
N       -0.3738689355    0.2880843306    0.0000000000
H        0.6011169586    0.6061270425   -0.0000000000
3    
Image 4/11, Energy =   -92.7280149822 (+62.877 kcal/mol)
C       -0.0390946899   -0.7091358810   -0.0000000000
N       -0.6120268869    0.3349005976    0.0000000000
H        0.6511215768    0.3742352834   -0.0000000000
3    
Image 5/11, Energy =   -92.7501959844 (+48.958 kcal/mol)
C        0.0188404623   -0.4823687137   -0.0000000000
N       -0.8723650629    0.2653216419    0.0000000000
H        0.8535246006    0.2170470718   -0.0000000000
3    
Image 6/11, Energy =   -92.8104068189 (+11.175 kcal/mol)
C        0.0260675106   -0.2275560349   -0.0000000000
N       -1.0475739010    0.1632376429    0.0000000000
H        1.0215063904    0.0643183920   -0.0000000000
3    
Image 7/11, Energy =   -92.8279133686 (+0.190 kcal/mol)
C        0.0327475276   -0.0287204442   -0.0000000000
N       -1.1109514047   -0.0404864267   -0.0000000000
H        1.0782038771    0.0692068709   -0.0000000000
3    
Image 8/11, Energy =   -92.8281829811 (+0.021 kcal/mol)
C        0.0229609938    0.0226543699   -0.0000000000
N       -0.9947985761   -0.4998207923   -0.0000000000
H        0.9718375823    0.4771664224    0.0000000000
3    
Image 9/11, Energy =   -92.8282156559 (+0.000 kcal/mol)
C        0.0224812053    0.0205070626    0.0000000000
N       -0.8054170480   -0.7691461277   -0.0000000000
H        0.7829358427    0.7486390651   -0.0000000000
3    
Image 10/11, Energy =   -92.8275480229 (+0.419 kcal/mol)
C        0.0194260556    0.0213642891    0.0000000000
N       -0.7589320377   -0.8347584640    0.0000000000
H        0.7395059821    0.8133941749    0.0000000000
