3    
Image 0/11, Energy =   -92.8141878354 (+8.384 kcal/mol)
C       -0.7519862184   -0.8272338399    0.0000000000
N        0.0394753354    0.0434721365    0.0000000000
H        0.7125108830    0.7837617034    0.0000000000
3    
Image 1/11, Energy =   -92.8108776686 (+10.461 kcal/mol)
C       -0.6751882853   -0.8460467270    0.0000000000
N       -0.0644167417    0.1480116951    0.0000000000
H        0.7396050270    0.6980350319    0.0000000000
3    
Image 2/11, Energy =   -92.7829424463 (+27.990 kcal/mol)
C       -0.5056677758   -0.8299849504    0.0000000000
N       -0.2423408564    0.3257973986    0.0000000000
H        0.7480086321    0.5041875517   -0.0000000000
3    
Image 3/11, Energy =   -92.7533469849 (+46.562 kcal/mol)
C       -0.3407455886   -0.7896427972   -0.0000000000
N       -0.3822248079    0.4096489766   -0.0000000000
H        0.7229703965    0.3799938205    0.0000000000
3    
Image 4/11, Energy =   -92.7100270639 (+73.746 kcal/mol)
C       -0.1823422283   -0.7863898262   -0.0000000000
N       -0.6339121384    0.3473796925    0.0000000000
H        0.8162543668    0.4390101337   -0.0000000000
3    
Image 5/11, Energy =   -92.7472581180 (+50.383 kcal/mol)
C        0.0264369195   -0.5038763218    0.0000000000
N       -0.8842736267    0.2392485716   -0.0000000000
H        0.8578367072    0.2646277502   -0.0000000000
3    
Image 6/11, Energy =   -92.8013290098 (+16.453 kcal/mol)
C        0.1115309359   -0.2603550962    0.0000000000
N       -1.0339910263   -0.1395135568   -0.0000000000
H        0.9224600904    0.3998686530   -0.0000000000
3    
Image 7/11, Energy =   -92.8197204644 (+4.912 kcal/mol)
C        0.1025766637   -0.1219636321   -0.0000000000
N       -0.9795665463   -0.4648443319   -0.0000000000
H        0.8769898826    0.5868079641    0.0000000000
3    
Image 8/11, Energy =   -92.8246367687 (+1.827 kcal/mol)
C        0.0232052124   -0.0120189620    0.0000000000
N       -0.8299021009   -0.7780058794   -0.0000000000
H        0.8066968886    0.7900248414   -0.0000000000
3    
Image 9/11, Energy =   -92.8082765136 (+12.093 kcal/mol)
C        0.1300604408   -0.0883455390    0.0000000000
N       -0.8360253161   -0.6149986720    0.0000000000
H        0.7059648752    0.7033442110    0.0000000000
3    
Image 10/11, Energy =   -92.8275480229 (+0.000 kcal/mol)
C        0.0194260556    0.0213642891    0.0000000000
N       -0.7589320377   -0.8347584640    0.0000000000
H        0.7395059821    0.8133941749    0.0000000000
