3    
Image 0/11, Energy =   -92.8141878354 (+8.775 kcal/mol)
C       -0.7519862184   -0.8272338399    0.0000000000
N        0.0394753354    0.0434721365    0.0000000000
H        0.7125108830    0.7837617034    0.0000000000
3    
Image 1/11, Energy =   -92.8109387618 (+10.814 kcal/mol)
C       -0.6746954198   -0.8480680122    0.0000000000
N       -0.0652940790    0.1473631620    0.0000000000
H        0.7399894988    0.7007048502    0.0000000000
3    
Image 2/11, Energy =   -92.7847247850 (+27.264 kcal/mol)
C       -0.4848089206   -0.8505789723   -0.0000000000
N       -0.2445400602    0.3109367761    0.0000000000
H        0.7293489808    0.5396421962   -0.0000000000
3    
Image 3/11, Energy =   -92.7640705891 (+40.224 kcal/mol)
C       -0.3224385290   -0.8350314619   -0.0000000000
N       -0.3569966315    0.3538245788    0.0000000000
H        0.6794351606    0.4812068831    0.0000000000
3    
Image 4/11, Energy =   -92.7315896835 (+60.607 kcal/mol)
C       -0.0916441244   -0.7340044471   -0.0000000000
N       -0.5693829197    0.3541673266    0.0000000000
H        0.6610270441    0.3798371205   -0.0000000000
3    
Image 5/11, Energy =   -92.7501801040 (+48.941 kcal/mol)
C        0.0195119555   -0.4832110625    0.0000000000
N       -0.8758276915    0.2527890667   -0.0000000000
H        0.8563157360    0.2304219958   -0.0000000000
3    
Image 6/11, Energy =   -92.7881857568 (+25.092 kcal/mol)
C        0.0788764470   -0.3329811452    0.0000000000
N       -1.0235518583    0.0805277548   -0.0000000000
H        0.9446754113    0.2524533904   -0.0000000000
3    
Image 7/11, Energy =   -92.8149933540 (+8.270 kcal/mol)
C        0.0758549104   -0.1865151664    0.0000000000
N       -1.0713138015   -0.1150067469   -0.0000000000
H        0.9954588911    0.3015219134   -0.0000000000
3    
Image 8/11, Energy =   -92.8263712433 (+1.130 kcal/mol)
C        0.0626793736   -0.0520970553   -0.0000000000
N       -0.9963198941   -0.4829927722   -0.0000000000
H        0.9336405205    0.5350898275    0.0000000000
3    
Image 9/11, Energy =   -92.8281724084 (+0.000 kcal/mol)
C        0.0215219432    0.0252475998    0.0000000000
N       -0.8005154349   -0.7743703056   -0.0000000000
H        0.7789934917    0.7491227058   -0.0000000000
3    
Image 10/11, Energy =   -92.8275480229 (+0.392 kcal/mol)
C        0.0194260556    0.0213642891    0.0000000000
N       -0.7589320377   -0.8347584640    0.0000000000
H        0.7395059821    0.8133941749    0.0000000000
