3    
Image 0/11, Energy =   -92.8141878354 (+8.802 kcal/mol)
C       -0.7519862184   -0.8272338399    0.0000000000
N        0.0394753354    0.0434721365    0.0000000000
H        0.7125108830    0.7837617034    0.0000000000
3    
Image 1/11, Energy =   -92.8140890449 (+8.864 kcal/mol)
C       -0.6226210912   -0.9061707138    0.0000000000
N       -0.0173065232    0.0900116793   -0.0000000000
H        0.6399276144    0.8161590345    0.0000000000
3    
Image 2/11, Energy =   -92.7983276860 (+18.755 kcal/mol)
C       -0.3519781244   -0.9698780665   -0.0000000000
N       -0.2252272270    0.2008133488    0.0000000000
H        0.5772053515    0.7690647177    0.0000000000
3    
Image 3/11, Energy =   -92.7724849728 (+34.971 kcal/mol)
C       -0.2362436406   -0.9003182420   -0.0000000000
N       -0.3669019085    0.2815668109    0.0000000000
H        0.6031455491    0.6187514311    0.0000000000
3    
Image 4/11, Energy =   -92.7236208187 (+65.634 kcal/mol)
C       -0.0142344086   -0.6450226883   -0.0000000000
N       -0.6990676103    0.3257798286    0.0000000000
H        0.7133020190    0.3192428598    0.0000000000
3    
Image 5/11, Energy =   -92.7533735185 (+46.964 kcal/mol)
C        0.0237768595   -0.4706418646   -0.0000000000
N       -0.8852221281    0.2553455984    0.0000000000
H        0.8614452686    0.2152962662    0.0000000000
3    
Image 6/11, Energy =   -92.8087519171 (+12.213 kcal/mol)
C        0.0294751020   -0.2374723180   -0.0000000000
N       -1.0453482242    0.1520074893    0.0000000000
H        1.0158731223    0.0854648286    0.0000000000
3    
Image 7/11, Energy =   -92.8281697291 (+0.028 kcal/mol)
C        0.0316917019   -0.0100181497   -0.0000000000
N       -1.1119402230   -0.0372402908    0.0000000000
H        1.0802485211    0.0472584405    0.0000000000
3    
Image 8/11, Energy =   -92.8282081217 (+0.004 kcal/mol)
C        0.0295052181    0.0094710151    0.0000000000
N       -0.9946977935   -0.5007615498    0.0000000000
H        0.9651925754    0.4912905347   -0.0000000000
3    
Image 9/11, Energy =   -92.8282149805 (+0.000 kcal/mol)
C        0.0210470166    0.0223153438    0.0000000000
N       -0.7990347643   -0.7754244714   -0.0000000000
H        0.7779877476    0.7531091278   -0.0000000000
3    
Image 10/11, Energy =   -92.8275480229 (+0.419 kcal/mol)
C        0.0194260556    0.0213642891    0.0000000000
N       -0.7589320378   -0.8347584640    0.0000000000
H        0.7395059821    0.8133941749    0.0000000000
