3    
Image 0/11, Energy =   -92.8141878354 (+8.803 kcal/mol)
C       -0.7519862184   -0.8272338399    0.0000000000
N        0.0394753354    0.0434721365    0.0000000000
H        0.7125108830    0.7837617034    0.0000000000
3    
Image 1/11, Energy =   -92.8038125787 (+15.313 kcal/mol)
C       -0.4167736629   -0.9672718896   -0.0000000000
N       -0.1759795138    0.1801045452   -0.0000000000
H        0.5927531766    0.7871673444    0.0000000000
3    
Image 2/11, Energy =   -92.7727825379 (+34.785 kcal/mol)
C       -0.2406561580   -0.9004442942   -0.0000000000
N       -0.3607648552    0.2859455096   -0.0000000000
H        0.6014210132    0.6144987845    0.0000000000
3    
Image 3/11, Energy =   -92.7428119679 (+53.592 kcal/mol)
C       -0.1135848391   -0.7896943680   -0.0000000000
N       -0.5033771842    0.3404425086   -0.0000000000
H        0.6169620232    0.4492518594    0.0000000000
3    
Image 4/11, Energy =   -92.7236064005 (+65.643 kcal/mol)
C       -0.0250390230   -0.6468878929   -0.0000000000
N       -0.6887092097    0.3373228872   -0.0000000000
H        0.7137482327    0.3095650057    0.0000000000
3    
Image 5/11, Energy =   -92.7618714399 (+41.632 kcal/mol)
C        0.0158150246   -0.4393185236   -0.0000000000
N       -0.9058567142    0.2620782632   -0.0000000000
H        0.8900416896    0.1772402604    0.0000000000
3    
Image 6/11, Energy =   -92.8193350821 (+5.573 kcal/mol)
C        0.0271265487   -0.1618861986   -0.0000000000
N       -1.0757186194    0.1268939044   -0.0000000000
H        1.0485920707    0.0349922942    0.0000000000
3    
Image 7/11, Energy =   -92.8282118897 (+0.002 kcal/mol)
C        0.0304599947    0.0040129648    0.0000000000
N       -1.0809240881   -0.2672161263   -0.0000000000
H        1.0504640933    0.2632031614    0.0000000000
3    
Image 8/11, Energy =   -92.8282152908 (+0.000 kcal/mol)
C        0.0264881097    0.0152703858    0.0000000000
N       -0.9828042658   -0.5232366136    0.0000000000
H        0.9563161561    0.5079662279    0.0000000000
3    
Image 9/11, Energy =   -92.8282158187 (+0.000 kcal/mol)
C        0.0235918575    0.0192599684    0.0000000000
N       -0.8615339848   -0.7057764888    0.0000000000
H        0.8379421273    0.6865165204   -0.0000000000
3    
Image 10/11, Energy =   -92.8275480229 (+0.419 kcal/mol)
C        0.0194260556    0.0213642891    0.0000000000
N       -0.7589320377   -0.8347584640    0.0000000000
H        0.7395059821    0.8133941749    0.0000000000
