3    
Image 0/11, Energy =   -92.8141878354 (+8.803 kcal/mol)
C       -0.7519862184   -0.8272338399    0.0000000000
N        0.0394753354    0.0434721365    0.0000000000
H        0.7125108830    0.7837617034    0.0000000000
3    
Image 1/11, Energy =   -92.8148226368 (+8.404 kcal/mol)
C       -0.5764789118   -0.9406473807    0.0000000000
N        0.0180780764    0.0616246786    0.0000000000
H        0.5584008354    0.8790227021    0.0000000000
3    
Image 2/11, Energy =   -92.7992259126 (+18.191 kcal/mol)
C       -0.3899989520   -0.9591881181   -0.0000000000
N       -0.2123397462    0.2040768503    0.0000000000
H        0.6023386982    0.7551112677    0.0000000000
3    
Image 3/11, Energy =   -92.7718926031 (+35.343 kcal/mol)
C       -0.2550048769   -0.8932533124   -0.0000000000
N       -0.3629417403    0.2923740151    0.0000000000
H        0.6179466173    0.6008792973    0.0000000000
3    
Image 4/11, Energy =   -92.7236058663 (+65.644 kcal/mol)
C       -0.0156962228   -0.6475653697   -0.0000000000
N       -0.6930069939    0.3276794680    0.0000000000
H        0.7087032166    0.3198859017    0.0000000000
3    
Image 5/11, Energy =   -92.7536393253 (+46.797 kcal/mol)
C        0.0209262387   -0.4693285290   -0.0000000000
N       -0.8841553753    0.2599658151    0.0000000000
H        0.8632291366    0.2093627139    0.0000000000
3    
Image 6/11, Energy =   -92.8087401316 (+12.221 kcal/mol)
C        0.0290269769   -0.2376738405   -0.0000000000
N       -1.0451726280    0.1531859590    0.0000000000
H        1.0161456511    0.0844878815    0.0000000000
3    
Image 7/11, Energy =   -92.8282124985 (+0.002 kcal/mol)
C        0.0303628388   -0.0021233427   -0.0000000000
N       -1.1140007874   -0.0203149570    0.0000000000
H        1.0836379486    0.0224382997    0.0000000000
3    
Image 8/11, Energy =   -92.8282157392 (+0.000 kcal/mol)
C        0.0269857428    0.0140077305    0.0000000000
N       -0.9937948371   -0.5024305910    0.0000000000
H        0.9668090943    0.4884228605   -0.0000000000
3    
Image 9/11, Energy =   -92.8282149805 (+0.000 kcal/mol)
C        0.0210470166    0.0223153438    0.0000000000
N       -0.7990347643   -0.7754244714   -0.0000000000
H        0.7779877476    0.7531091278   -0.0000000000
3    
Image 10/11, Energy =   -92.8275480229 (+0.419 kcal/mol)
C        0.0194260556    0.0213642891    0.0000000000
N       -0.7589320378   -0.8347584640    0.0000000000
H        0.7395059821    0.8133941749    0.0000000000
