3    
Image 0/11, Energy =   -92.8141878354 (+8.740 kcal/mol)
C       -0.7519862184   -0.8272338399    0.0000000000
N        0.0394753354    0.0434721365    0.0000000000
H        0.7125108830    0.7837617034    0.0000000000
3    
Image 1/11, Energy =   -92.8109131459 (+10.795 kcal/mol)
C       -0.6748725482   -0.8510412766    0.0000000000
N       -0.0676288443    0.1477869703   -0.0000000000
H        0.7425013925    0.7032543063   -0.0000000000
3    
Image 2/11, Energy =   -92.7852996151 (+26.868 kcal/mol)
C       -0.4782422032   -0.8566266258    0.0000000000
N       -0.2445994669    0.3060431802   -0.0000000000
H        0.7228416701    0.5505834456    0.0000000000
3    
Image 3/11, Energy =   -92.7657809823 (+39.116 kcal/mol)
C       -0.3225065681   -0.8410327587   -0.0000000000
N       -0.3492015480    0.3468048841    0.0000000000
H        0.6717081160    0.4942278746    0.0000000000
3    
Image 4/11, Energy =   -92.7318847233 (+60.386 kcal/mol)
C       -0.0829702168   -0.7367069216   -0.0000000000
N       -0.5689836096    0.3578348108    0.0000000000
H        0.6519538264    0.3788721108    0.0000000000
3    
Image 5/11, Energy =   -92.7515966762 (+48.017 kcal/mol)
C        0.0261359541   -0.4708098669    0.0000000000
N       -0.8765011028    0.2531641727    0.0000000000
H        0.8503651487    0.2176456943    0.0000000000
3    
Image 6/11, Energy =   -92.7932274545 (+21.893 kcal/mol)
C        0.0513361644   -0.3079561467    0.0000000000
N       -1.0095218406    0.0923843352   -0.0000000000
H        0.9581856762    0.2155718115    0.0000000000
3    
Image 7/11, Energy =   -92.8168684511 (+7.058 kcal/mol)
C        0.0695140197   -0.1730155295   -0.0000000000
N       -1.0745755950   -0.1081964053   -0.0000000000
H        1.0050615754    0.2812119347   -0.0000000000
3    
Image 8/11, Energy =   -92.8268165399 (+0.815 kcal/mol)
C        0.0600875385   -0.0388789287   -0.0000000000
N       -0.9972942809   -0.4934084697    0.0000000000
H        0.9372067424    0.5322873984   -0.0000000000
3    
Image 9/11, Energy =   -92.8281160722 (+0.000 kcal/mol)
C        0.0139298210    0.0243669426    0.0000000000
N       -0.7998227731   -0.7788730261   -0.0000000000
H        0.7858929519    0.7545060837   -0.0000000000
3    
Image 10/11, Energy =   -92.8275480229 (+0.356 kcal/mol)
C        0.0194260556    0.0213642891    0.0000000000
N       -0.7589320378   -0.8347584640    0.0000000000
H        0.7395059821    0.8133941749    0.0000000000
