6    
Image 0/11, Energy =  -169.0522692293 (+0.180 kcal/mol)
C       -0.3689809232   -1.4576547332   -1.3858823910
C       -0.1536196575   -0.5941379364   -0.5627748996
H        0.0498937432    0.2058682499    0.1931202386
H       -0.5557149982   -2.2230003307   -2.1042277546
C        0.4068909404    1.6172446315    1.5286738868
N        0.6215308952    2.4516801189    2.3310909145
6    
Image 1/11, Energy =  -169.0525562869 (+0.000 kcal/mol)
C       -0.3498935805   -1.4467054970   -1.3694907751
C       -0.2794505536   -0.5279941140   -0.6015675800
H       -0.1333307563    0.2744822662    0.1157557584
H       -0.3983378037   -2.2662392639   -2.0238505878
C        0.4276317939    1.5892709767    1.5368621360
N        0.7333809003    2.3771856314    2.3422910456
6    
Image 2/11, Energy =  -169.0499259043 (+1.651 kcal/mol)
C       -0.3258766598   -1.4323396884   -1.3397988955
C       -0.3999400853   -0.4614100790   -0.6419298248
H       -0.3206326756    0.3677211106    0.0440778033
H       -0.2374015125   -2.2960548373   -1.9250856538
C        0.4406823946    1.5513776322    1.5175487919
N        0.8431685383    2.2707058615    2.3451877777
6    
Image 3/11, Energy =  -169.0461678789 (+4.009 kcal/mol)
C       -0.2976037969   -1.4070179759   -1.2913116005
C       -0.5099975099   -0.3974030427   -0.6846973166
H       -0.5190604859    0.4622909457   -0.0430537608
H       -0.0733371886   -2.2970475671   -1.7952984327
C        0.4499084712    1.5136497687    1.4769467836
N        0.9500905092    2.1255278710    2.3374143267
6    
Image 4/11, Energy =  -169.0415483605 (+6.908 kcal/mol)
C       -0.2640072315   -1.3666461902   -1.2252898782
C       -0.6079697197   -0.3382292439   -0.7180458379
H       -0.7249239974    0.5535239504   -0.1508555939
H        0.0898793000   -2.2623033656   -1.6333757728
C        0.4574986747    1.4764102227    1.4161295500
N        1.0495229728    1.9372446262    2.3114375325
6    
Image 5/11, Energy =  -169.0363101140 (+10.195 kcal/mol)
C       -0.2284200288   -1.3066944506   -1.1412742051
C       -0.6872278485   -0.2799437094   -0.7412616196
H       -0.9215921290    0.6352426739   -0.2690636959
H        0.2436561673   -2.1895099963   -1.4400122697
C        0.4637400907    1.4369278444    1.3345876433
N        1.1298437472    1.7039776375    2.2570241466
6    
Image 6/11, Energy =  -169.0296515215 (+14.373 kcal/mol)
C       -0.1984893253   -1.2304934055   -1.0487151548
C       -0.7375924188   -0.2103012190   -0.7433854894
H       -1.0978151749    0.7077700353   -0.3881733678
H        0.3849661137   -2.0781336411   -1.2168624985
C        0.4700474667    1.3673694580    1.2348424940
N        1.1788833378    1.4437887710    2.1622940167
6    
Image 7/11, Energy =  -169.0168072454 (+22.433 kcal/mol)
C       -0.1959227208   -1.1560782393   -0.9851210546
C       -0.7238560159   -0.1218195593   -0.6886890339
H       -1.2382266252    0.7603938322   -0.4899837987
H        0.4992049843   -1.9333564165   -0.9919416971
C        0.4718639156    1.2182408853    1.1154229089
N        1.1869364615    1.2326194954    2.0403126756
6    
Image 8/11, Energy =  -168.9964882117 (+35.183 kcal/mol)
C       -0.2329180828   -1.1083901873   -0.9772558104
C       -0.6250667966   -0.0119238128   -0.5526416551
H       -1.3178240608    0.7770281582   -0.5546697496
H        0.5676185733   -1.7865816884   -0.8198838049
C        0.4569743000    0.9993293335    0.9884305576
N        1.1512160669    1.1305381937    1.9160204623
6    
Image 9/11, Energy =  -169.0133239396 (+24.619 kcal/mol)
C       -0.2642049594   -1.0815956694   -0.9902627058
C       -0.5115331770    0.0826480185   -0.3949660782
H       -1.3110552314    0.7791907764   -0.5589102013
H        0.5929178240   -1.7070340817   -0.7387655438
C        0.4085475218    0.8286888823    0.8843799019
N        1.0853280220    1.0981020706    1.7985246258
6    
Image 10/11, Energy =  -169.0437609544 (+5.519 kcal/mol)
C       -0.2721093513   -1.0384613434   -0.9953339881
C       -0.4664498990    0.1336943575   -0.3047184047
H       -1.3026915424    0.8069996864   -0.5503883163
H        0.6404231461   -1.5232274468   -0.5526624607
C        0.3524169885    0.6272448767    0.7650856657
N        1.0484106581    0.9937498643    1.6380174988
