6    
Image 0/11, Energy =  -169.0522692293 (+0.338 kcal/mol)
C       -0.3689809232   -1.4576547332   -1.3858823910
C       -0.1536196575   -0.5941379364   -0.5627748996
H        0.0498937432    0.2058682499    0.1931202386
H       -0.5557149982   -2.2230003307   -2.1042277546
C        0.4068909404    1.6172446315    1.5286738868
N        0.6215308952    2.4516801189    2.3310909145
6    
Image 1/11, Energy =  -169.0528073072 (+0.000 kcal/mol)
C       -0.3467735861   -1.4538760831   -1.3611569606
C       -0.2725721768   -0.5256899541   -0.6065269872
H       -0.1449392748    0.2888272767    0.1014480400
H       -0.3908363642   -2.2749816684   -2.0132332166
C        0.3798271561    1.6378977643    1.5117532894
N        0.7752942455    2.3278226645    2.3677158312
6    
Image 2/11, Energy =  -169.0507268688 (+1.305 kcal/mol)
C       -0.3202820658   -1.4403246593   -1.3277224455
C       -0.3889566641   -0.4573038245   -0.6471144939
H       -0.3369365087    0.3904093110    0.0186201393
H       -0.2243303056   -2.3098804524   -1.9023671525
C        0.3593266598    1.6463447673    1.4862003803
N        0.9111788839    2.1707548576    2.3723835698
6    
Image 3/11, Energy =  -169.0474649007 (+3.352 kcal/mol)
C       -0.2897668625   -1.4108346927   -1.2789544674
C       -0.4977612591   -0.3921134545   -0.6853175344
H       -0.5299966666    0.4884431754   -0.0726216526
H       -0.0589871069   -2.3098118931   -1.7614957496
C        0.3543631798    1.6358871129    1.4529991799
N        1.0221487147    1.9884297514    2.3453902225
6    
Image 4/11, Energy =  -169.0430732866 (+6.108 kcal/mol)
C       -0.2573674959   -1.3651082770   -1.2125763824
C       -0.5955410086   -0.3282875546   -0.7219914860
H       -0.7244813523    0.5784738270   -0.1749638456
H        0.1025120925   -2.2712885395   -1.5917608304
C        0.3663477314    1.5954647233    1.4091174349
N        1.1085300324    1.7907458196    2.2921751086
6    
Image 5/11, Energy =  -169.0373333603 (+9.710 kcal/mol)
C       -0.2263196422   -1.3007428638   -1.1337371898
C       -0.6790868484   -0.2642067432   -0.7496585477
H       -0.9202156131    0.6582538611   -0.2890453365
H        0.2586607877   -2.1900120171   -1.3926177933
C        0.3945024760    1.5089717596    1.3470979293
N        1.1724588396    1.5877360015    2.2179609373
6    
Image 6/11, Energy =  -169.0289643950 (+14.962 kcal/mol)
C       -0.2054979459   -1.2199467745   -1.0541562819
C       -0.7337091497   -0.1924694360   -0.7522411296
H       -1.1101715043    0.7262648720   -0.4108469544
H        0.4052116479   -2.0602720483   -1.1624473624
C        0.4301811181    1.3585321738    1.2554016685
N        1.2139858336    1.3878912105    2.1242900595
6    
Image 7/11, Energy =  -169.0125562460 (+25.258 kcal/mol)
C       -0.2157497571   -1.1479190929   -1.0075809377
C       -0.7144041996   -0.1014917747   -0.6845008106
H       -1.2629841175    0.7686277265   -0.5189909211
H        0.5203810977   -1.8881911799   -0.9310337865
C        0.4563497104    1.1381437764    1.1299010415
N        1.2164072660    1.2308305414    2.0122054137
6    
Image 8/11, Energy =  -168.9961622500 (+35.545 kcal/mol)
C       -0.2550933882   -1.1080865515   -1.0110230101
C       -0.6120416778    0.0056699958   -0.5328082690
H       -1.3341040775    0.7747401231   -0.5811894949
H        0.5794681842   -1.7316782665   -0.7647582063
C        0.4550430774    0.9107106182    0.9979330588
N        1.1667278820    1.1486440772    1.8918459205
6    
Image 9/11, Energy =  -169.0200229504 (+20.572 kcal/mol)
C       -0.2730607675   -1.0752618492   -1.0076870060
C       -0.5040905237    0.0914189216   -0.3793222161
H       -1.3174002267    0.7733117462   -0.5733534380
H        0.5984911321   -1.6672079433   -0.6991733809
C        0.4046854403    0.7773855640    0.8847993529
N        1.0913749456    1.1003535569    1.7747366861
6    
Image 10/11, Energy =  -169.0437609544 (+5.677 kcal/mol)
C       -0.2721093513   -1.0384613434   -0.9953339881
C       -0.4664498990    0.1336943575   -0.3047184047
H       -1.3026915424    0.8069996864   -0.5503883163
H        0.6404231461   -1.5232274468   -0.5526624607
C        0.3524169885    0.6272448767    0.7650856657
N        1.0484106581    0.9937498643    1.6380174988
