6    
Image 0/11, Energy =  -169.0522692293 (+0.250 kcal/mol)
C       -0.3689809232   -1.4576547332   -1.3858823910
C       -0.1536196575   -0.5941379364   -0.5627748996
H        0.0498937432    0.2058682499    0.1931202386
H       -0.5557149982   -2.2230003307   -2.1042277546
C        0.4068909404    1.6172446315    1.5286738868
N        0.6215308952    2.4516801189    2.3310909145
6    
Image 1/11, Energy =  -169.0526671598 (+0.000 kcal/mol)
C       -0.3516974272   -1.4494708092   -1.3665492334
C       -0.2770400014   -0.5270934201   -0.6040676323
H       -0.1365696345    0.2759608542    0.1134005113
H       -0.3945847793   -2.2672297973   -2.0219456185
C        0.4156333315    1.6013171215    1.5294791636
N        0.7442585108    2.3665160507    2.3496828061
6    
Image 2/11, Energy =  -169.0502557053 (+1.513 kcal/mol)
C       -0.3278522968   -1.4349869490   -1.3384345762
C       -0.3976177340   -0.4611633579   -0.6452787480
H       -0.3251083602    0.3703964368    0.0384215255
H       -0.2319703926   -2.2997772393   -1.9203842907
C        0.4208496010    1.5750263461    1.5102485592
N        0.8616991822    2.2505047628    2.3554275287
6    
Image 3/11, Energy =  -169.0466374665 (+3.784 kcal/mol)
C       -0.2991259337   -1.4076428299   -1.2938442816
C       -0.5087040025   -0.4000754480   -0.6840183088
H       -0.5220698588    0.4649049548   -0.0503192207
H       -0.0678636097   -2.2999864564   -1.7879382326
C        0.4279044495    1.5439251500    1.4712051338
N        0.9698589544    2.0988746292    2.3449149093
6    
Image 4/11, Energy =  -169.0421474064 (+6.601 kcal/mol)
C       -0.2672674671   -1.3674535218   -1.2280274612
C       -0.6051929369   -0.3396070334   -0.7193196345
H       -0.7216542356    0.5557754145   -0.1550222604
H        0.0933704862   -2.2646182262   -1.6245560028
C        0.4348985542    1.5093991991    1.4127909952
N        1.0658455983    1.9065041673    2.3141343633
6    
Image 5/11, Energy =  -169.0368098506 (+9.951 kcal/mol)
C       -0.2336288272   -1.3087368499   -1.1459052343
C       -0.6841321851   -0.2779043404   -0.7434127547
H       -0.9176083087    0.6391631483   -0.2704831000
H        0.2484025656   -2.1920990207   -1.4295914851
C        0.4463949878    1.4622914743    1.3361992523
N        1.1405717666    1.6772855874    2.2531933217
6    
Image 6/11, Energy =  -169.0298025865 (+14.348 kcal/mol)
C       -0.2049334399   -1.2318310107   -1.0582510729
C       -0.7328027449   -0.2084753466   -0.7455203537
H       -1.0958775858    0.7108307195   -0.3865304123
H        0.3884572821   -2.0800923383   -1.2073177877
C        0.4603116982    1.3745162050    1.2402214438
N        1.1848447896    1.4350517696    2.1573981830
6    
Image 7/11, Energy =  -169.0162983689 (+22.822 kcal/mol)
C       -0.2026323787   -1.1573122862   -0.9950435381
C       -0.7191742087   -0.1199317950   -0.6916522460
H       -1.2412917009    0.7612963884   -0.4882419806
H        0.5018006805   -1.9319007183   -0.9863306585
C        0.4694810662    1.2039049395    1.1211588156
N        1.1918165413    1.2439434692    2.0401096075
6    
Image 8/11, Energy =  -168.9960749676 (+35.512 kcal/mol)
C       -0.2403162990   -1.1072984700   -0.9834838076
C       -0.6227745573    0.0013879081   -0.5474883761
H       -1.3345471851    0.7786299033   -0.5680955126
H        0.5794174439   -1.7617817158   -0.7910622657
C        0.4622418730    0.9620248170    0.9837150884
N        1.1559787245    1.1270375540    1.9064148732
6    
Image 9/11, Energy =  -169.0133093538 (+24.697 kcal/mol)
C       -0.2672954898   -1.0812590770   -0.9949367974
C       -0.5135237901    0.0815321504   -0.3995582122
H       -1.3161699393    0.7740374711   -0.5634896944
H        0.5929028386   -1.6970099978   -0.7307155243
C        0.4136754074    0.8206790186    0.8887511443
N        1.0904109731    1.1020204311    1.7999490823
6    
Image 10/11, Energy =  -169.0437609544 (+5.589 kcal/mol)
C       -0.2721093513   -1.0384613434   -0.9953339881
C       -0.4664498990    0.1336943575   -0.3047184047
H       -1.3026915424    0.8069996864   -0.5503883163
H        0.6404231461   -1.5232274468   -0.5526624607
C        0.3524169885    0.6272448767    0.7650856657
N        1.0484106581    0.9937498643    1.6380174988
