6    
Image 0/11, Energy =  -169.0522692293 (+0.340 kcal/mol)
C       -0.3689809232   -1.4576547332   -1.3858823910
C       -0.1536196575   -0.5941379364   -0.5627748996
H        0.0498937432    0.2058682499    0.1931202386
H       -0.5557149982   -2.2230003307   -2.1042277546
C        0.4068909404    1.6172446315    1.5286738868
N        0.6215308952    2.4516801189    2.3310909145
6    
Image 1/11, Energy =  -169.0528111092 (+0.000 kcal/mol)
C       -0.3469568501   -1.4542593782   -1.3624457576
C       -0.2731064909   -0.5256261073   -0.6059535862
H       -0.1446115941    0.2876934489    0.1018707683
H       -0.3909969568   -2.2746193446   -2.0137170324
C        0.3816525006    1.6366006964    1.5130586564
N        0.7740193911    2.3302106846    2.3671869476
6    
Image 2/11, Energy =  -169.0507273468 (+1.308 kcal/mol)
C       -0.3207196793   -1.4397608393   -1.3284929493
C       -0.3901638084   -0.4586553362   -0.6473566982
H       -0.3362386750    0.3887460877    0.0197749034
H       -0.2245022622   -2.3095460121   -1.9039371526
C        0.3624444464    1.6436884059    1.4876484230
N        0.9091799780    2.1755276937    2.3723634712
6    
Image 3/11, Energy =  -169.0474719979 (+3.350 kcal/mol)
C       -0.2907190782   -1.4108824366   -1.2801686482
C       -0.4989062435   -0.3934902490   -0.6858784957
H       -0.5289258708    0.4862177771   -0.0712831795
H       -0.0593853998   -2.3095017885   -1.7635433511
C        0.3577612501    1.6329226803    1.4540203512
N        1.0201753416    1.9947340160    2.3468533218
6    
Image 4/11, Energy =  -169.0430878134 (+6.101 kcal/mol)
C       -0.2583099848   -1.3656416516   -1.2138448170
C       -0.5964600954   -0.3298363799   -0.7226940514
H       -0.7233585965    0.5760728676   -0.1732686609
H        0.1017737486   -2.2712851396   -1.5942971920
C        0.3694773432    1.5935281510    1.4092202921
N        1.1068775844    1.7971621515    2.2948844285
6    
Image 5/11, Energy =  -169.0373958996 (+9.673 kcal/mol)
C       -0.2267079548   -1.3017325347   -1.1349608607
C       -0.6795342404   -0.2660110223   -0.7500295634
H       -0.9180252305    0.6561333001   -0.2865140679
H        0.2569525182   -2.1912593239   -1.3962658981
C        0.3972819717    1.5093354577    1.3470591545
N        1.1700329354    1.5935341213    2.2207112352
6    
Image 6/11, Energy =  -169.0291331590 (+14.858 kcal/mol)
C       -0.2051668349   -1.2212634200   -1.0547502932
C       -0.7345590860   -0.1943498610   -0.7528285763
H       -1.1075057427    0.7247371942   -0.4081032334
H        0.4032666468   -2.0626989670   -1.1669100694
C        0.4322629570    1.3612004172    1.2552569543
N        1.2117020595    1.3923746342    2.1273352176
6    
Image 7/11, Energy =  -169.0127437034 (+25.143 kcal/mol)
C       -0.2155237243   -1.1484156212   -1.0072110593
C       -0.7161145247   -0.1023269427   -0.6858289311
H       -1.2632721407    0.7681282321   -0.5187658947
H        0.5204441767   -1.8885019655   -0.9315812526
C        0.4587153604    1.1406657994    1.1291056676
N        1.2157508525    1.2304504947    2.0142814694
6    
Image 8/11, Energy =  -168.9961617005 (+35.548 kcal/mol)
C       -0.2560652321   -1.1078403222   -1.0108812291
C       -0.6117566866    0.0070671364   -0.5322095279
H       -1.3364177194    0.7739438847   -0.5831582823
H        0.5809889320   -1.7271951661   -0.7600613166
C        0.4563791816    0.9100582230    0.9952222115
N        1.1668715244    1.1439662407    1.8910881435
6    
Image 9/11, Energy =  -169.0197667932 (+20.736 kcal/mol)
C       -0.2736747539   -1.0755979065   -1.0076875302
C       -0.5057176276    0.0912543693   -0.3814024278
H       -1.3194821653    0.7723659704   -0.5758647608
H        0.5997372196   -1.6624416608   -0.6945534669
C        0.4056424058    0.7783685376    0.8842810950
N        1.0934949213    1.0960506861    1.7752270888
6    
Image 10/11, Energy =  -169.0437609544 (+5.679 kcal/mol)
C       -0.2721093513   -1.0384613434   -0.9953339881
C       -0.4664498990    0.1336943575   -0.3047184047
H       -1.3026915424    0.8069996864   -0.5503883163
H        0.6404231461   -1.5232274468   -0.5526624607
C        0.3524169885    0.6272448767    0.7650856657
N        1.0484106581    0.9937498643    1.6380174988
