6    
Image 0/11, Energy =  -169.0522692293 (+0.322 kcal/mol)
C       -0.3689809232   -1.4576547332   -1.3858823910
C       -0.1536196575   -0.5941379364   -0.5627748996
H        0.0498937432    0.2058682499    0.1931202386
H       -0.5557149982   -2.2230003307   -2.1042277546
C        0.4068909404    1.6172446315    1.5286738868
N        0.6215308952    2.4516801189    2.3310909145
6    
Image 1/11, Energy =  -169.0527822127 (+0.000 kcal/mol)
C       -0.3455922670   -1.4540876043   -1.3592825649
C       -0.2714103908   -0.5244854111   -0.6063639055
H       -0.1456616498    0.2930069839    0.0993387651
H       -0.3905282995   -2.2762278693   -2.0108012364
C        0.3738190759    1.6422275322    1.5080919205
N        0.7793735309    2.3195663683    2.3690170173
6    
Image 2/11, Energy =  -169.0507010315 (+1.306 kcal/mol)
C       -0.3186196795   -1.4403677950   -1.3241183738
C       -0.3863009987   -0.4543985113   -0.6474374218
H       -0.3388049430    0.3964810701    0.0156732770
H       -0.2233043172   -2.3115220526   -1.8976195350
C        0.3496791146    1.6546459321    1.4818314428
N        0.9173508234    2.1551613562    2.3716706079
6    
Image 3/11, Energy =  -169.0474338773 (+3.356 kcal/mol)
C       -0.2872313368   -1.4103109541   -1.2728553052
C       -0.4948639028   -0.3874997721   -0.6865570029
H       -0.5328713230    0.4953959689   -0.0761652775
H       -0.0570494524   -2.3106812160   -1.7549807561
C        0.3434171574    1.6451862629    1.4501403211
N        1.0285988571    1.9679097097    2.3404180189
6    
Image 4/11, Energy =  -169.0429908775 (+6.144 kcal/mol)
C       -0.2542038731   -1.3626285428   -1.2070166005
C       -0.5940682821   -0.3232214863   -0.7222215771
H       -0.7285349552    0.5856904291   -0.1802972554
H        0.1057508219   -2.2704736007   -1.5825701314
C        0.3564730426    1.6013468677    1.4086624155
N        1.1145832454    1.7692863317    2.2834431478
6    
Image 5/11, Energy =  -169.0371208035 (+9.828 kcal/mol)
C       -0.2234938437   -1.2960836546   -1.1287352239
C       -0.6793705907   -0.2584525554   -0.7502893183
H       -0.9269651271    0.6652444524   -0.2968055901
H        0.2640423268   -2.1861192048   -1.3795922153
C        0.3863996813    1.5080996197    1.3482344657
N        1.1793875531    1.5673113407    2.2071878812
6    
Image 6/11, Energy =  -169.0285145779 (+15.228 kcal/mol)
C       -0.2041962564   -1.2151641633   -1.0505536962
C       -0.7321868012   -0.1869261577   -0.7513299744
H       -1.1166770439    0.7308785971   -0.4179804454
H        0.4098834306   -2.0540006407   -1.1505526418
C        0.4233000676    1.3497680377    1.2568422748
N        1.2198766031    1.3754443242    2.1135744824
6    
Image 7/11, Energy =  -169.0121404745 (+25.503 kcal/mol)
C       -0.2147204197   -1.1460141765   -1.0074368169
C       -0.7111234996   -0.0994971970   -0.6812222231
H       -1.2617390847    0.7704161800   -0.5197930316
H        0.5195694959   -1.8886121559   -0.9313837579
C        0.4497009496    1.1296757060    1.1334125063
N        1.2183125585    1.2340316402    2.0064233224
6    
Image 8/11, Energy =  -168.9961818163 (+35.517 kcal/mol)
C       -0.2529011484   -1.1079087582   -1.0114754287
C       -0.6131665607    0.0024158436   -0.5342837005
H       -1.3294441593    0.7762222734   -0.5783833573
H        0.5755332404   -1.7410530715   -0.7750965398
C        0.4529764106    0.9091183268    1.0058103517
N        1.1670022175    1.1612053824    1.8934286737
6    
Image 9/11, Energy =  -169.0199532586 (+20.600 kcal/mol)
C       -0.2713431785   -1.0745034908   -1.0072637454
C       -0.5030687091    0.0897847115   -0.3775830627
H       -1.3137698863    0.7755861186   -0.5688470450
H        0.5956900470   -1.6759459388   -0.7089997260
C        0.4037451826    0.7747470389    0.8882049381
N        1.0887465443    1.1103315566    1.7744886392
6    
Image 10/11, Energy =  -169.0437609544 (+5.661 kcal/mol)
C       -0.2721093513   -1.0384613434   -0.9953339881
C       -0.4664498990    0.1336943575   -0.3047184047
H       -1.3026915424    0.8069996864   -0.5503883163
H        0.6404231461   -1.5232274468   -0.5526624607
C        0.3524169885    0.6272448767    0.7650856657
N        1.0484106581    0.9937498643    1.6380174988
