6    
Image 0/11, Energy =  -169.0522692293 (+0.811 kcal/mol)
C       -0.3689809232   -1.4576547332   -1.3858823910
C       -0.1536196575   -0.5941379364   -0.5627748996
H        0.0498937432    0.2058682499    0.1931202386
H       -0.5557149982   -2.2230003307   -2.1042277546
C        0.4068909404    1.6172446315    1.5286738868
N        0.6215308952    2.4516801189    2.3310909145
6    
Image 1/11, Energy =  -169.0535614811 (+0.000 kcal/mol)
C       -0.3542536992   -1.4791954801   -1.3906627288
C       -0.2640941334   -0.5632865254   -0.6217290058
H       -0.1383106051    0.2431127748    0.0886390554
H       -0.4176323546   -2.2892179981   -2.0581340512
C        0.3798795262    1.6907892204    1.5737264362
N        0.7944112704    2.3977980076    2.4081602988
6    
Image 2/11, Energy =  -169.0521427930 (+0.890 kcal/mol)
C       -0.3287139531   -1.4696339213   -1.3634156786
C       -0.3523887542   -0.5114912501   -0.6429426397
H       -0.2996738188    0.3257555822    0.0374799942
H       -0.2823439244   -2.3168603698   -1.9844889148
C        0.3255773875    1.7216473450    1.5540190795
N        0.9375430634    2.2505826124    2.3993481623
6    
Image 3/11, Energy =  -169.0501830813 (+2.120 kcal/mol)
C       -0.3036057221   -1.4488528910   -1.3240506716
C       -0.4243769670   -0.4530171552   -0.6679298027
H       -0.4345945811    0.4132362667   -0.0276312035
H       -0.1649468589   -2.3304086368   -1.8793994032
C        0.2951261322    1.7391729763    1.5283524182
N        1.0323979963    2.0798694386    2.3706586646
6    
Image 4/11, Energy =  -169.0461469319 (+4.653 kcal/mol)
C       -0.2643324538   -1.4021273062   -1.2433660837
C       -0.5240485083   -0.3649007380   -0.7037410032
H       -0.6379846176    0.5412732775   -0.1441427614
H        0.0092314186   -2.3168825712   -1.6822355775
C        0.2762986305    1.7614342347    1.4920121017
N        1.1408355303    1.7812030999    2.2814733238
6    
Image 5/11, Energy =  -169.0410046163 (+7.880 kcal/mol)
C       -0.2233790472   -1.3393024467   -1.1483380228
C       -0.6316031892   -0.2887784676   -0.7470263806
H       -0.8686484219    0.6424888178   -0.2925393326
H        0.1873999137   -2.2566480853   -1.4536399932
C        0.3178529008    1.7480304607    1.4677493532
N        1.2183778453    1.4942097168    2.1737943770
6    
Image 6/11, Energy =  -169.0356435566 (+11.244 kcal/mol)
C       -0.1928087945   -1.2576135370   -1.0491643136
C       -0.7239502870   -0.2184222958   -0.7921926895
H       -1.0811505844    0.7188609214   -0.4582585279
H        0.3354098876   -2.1511914333   -1.2094762999
C        0.3830817294    1.6651855112    1.4405739899
N        1.2794180519    1.2431808272    2.0685178477
6    
Image 7/11, Energy =  -169.0297577547 (+14.937 kcal/mol)
C       -0.1724449544   -1.1587342836   -0.9651793881
C       -0.7977914548   -0.1509448193   -0.8273950234
H       -1.2551816345    0.7705184381   -0.6000194079
H        0.4615207795   -1.9957612100   -0.9772585846
C        0.4194709637    1.4369631833    1.3667558495
N        1.3444263046    1.0979586824    2.0030965657
6    
Image 8/11, Energy =  -169.0163387998 (+23.358 kcal/mol)
C       -0.1888442528   -1.1079363112   -0.9539771849
C       -0.7644656601   -0.0772797817   -0.7509069344
H       -1.3048591658    0.8097144257   -0.6162639494
H        0.5311509168   -1.8607548893   -0.8307303288
C        0.4191374557    1.1381731435    1.1962747561
N        1.3078807105    1.0980834034    1.9556036533
6    
Image 9/11, Energy =  -168.9961680409 (+36.015 kcal/mol)
C       -0.2581207495   -1.1002376524   -1.0100077411
C       -0.6124775945    0.0166256068   -0.5450151644
H       -1.3057571086    0.8093163856   -0.6177902215
H        0.5455328763   -1.7513023591   -0.7384836309
C        0.4376748554    0.8938449299    1.0275237010
N        1.1931477251    1.1317530797    1.8837730690
6    
Image 10/11, Energy =  -169.0437609544 (+6.150 kcal/mol)
C       -0.2721093513   -1.0384613434   -0.9953339881
C       -0.4664498990    0.1336943575   -0.3047184047
H       -1.3026915424    0.8069996864   -0.5503883163
H        0.6404231461   -1.5232274468   -0.5526624607
C        0.3524169885    0.6272448767    0.7650856657
N        1.0484106581    0.9937498643    1.6380174988
