6    
Image 0/11, Energy =  -169.0522692293 (+0.327 kcal/mol)
C       -0.3689809232   -1.4576547332   -1.3858823910
C       -0.1536196575   -0.5941379364   -0.5627748996
H        0.0498937432    0.2058682499    0.1931202386
H       -0.5557149982   -2.2230003307   -2.1042277546
C        0.4068909404    1.6172446315    1.5286738868
N        0.6215308952    2.4516801189    2.3310909145
6    
Image 1/11, Energy =  -169.0527898886 (+0.000 kcal/mol)
C       -0.3460956323   -1.4541151430   -1.3597326433
C       -0.2716438994   -0.5248148250   -0.6064919906
H       -0.1454617920    0.2916483681    0.1001028826
H       -0.3906093752   -2.2757892085   -2.0117103065
C        0.3758822377    1.6409865070    1.5094213930
N        0.7779284610    2.3220843013    2.3684106609
6    
Image 2/11, Energy =  -169.0507101042 (+1.305 kcal/mol)
C       -0.3192778147   -1.4405425940   -1.3253137294
C       -0.3868289781   -0.4551830517   -0.6472578635
H       -0.3382688234    0.3944894600    0.0165815006
H       -0.2237232237   -2.3109800478   -1.8991993691
C        0.3528518858    1.6520185798    1.4833359727
N        0.9152469535    2.1601976534    2.3718534861
6    
Image 3/11, Energy =  -169.0474455765 (+3.354 kcal/mol)
C       -0.2880275823   -1.4104172416   -1.2748843855
C       -0.4955160800   -0.3891173596   -0.6858825469
H       -0.5320966956    0.4932945166   -0.0750097040
H       -0.0577754739   -2.3104950990   -1.7571990036
C        0.3470077392    1.6421168512    1.4509930830
N        1.0264080921    1.9746183318    2.3419825554
6    
Image 4/11, Energy =  -169.0430211714 (+6.130 kcal/mol)
C       -0.2552293037   -1.3634223500   -1.2089344840
C       -0.5941905935   -0.3249916261   -0.7217666249
H       -0.7271898666    0.5835630394   -0.1785411065
H        0.1045308492   -2.2709355122   -1.5857640804
C        0.3596065674    1.5993839568    1.4087501754
N        1.1124723468    1.7764024909    2.2862561196
6    
Image 5/11, Energy =  -169.0371841496 (+9.793 kcal/mol)
C       -0.2246286240   -1.2976715188   -1.1304715340
C       -0.6789493957   -0.2603349378   -0.7497659849
H       -0.9249548902    0.6630637458   -0.2944488933
H        0.2623466784   -2.1873709023   -1.3839094197
C        0.3891564106    1.5082304929    1.3479723032
N        1.1770298205    1.5740831182    2.2106235280
6    
Image 6/11, Energy =  -169.0286310583 (+15.160 kcal/mol)
C       -0.2050459123   -1.2167078534   -1.0519575472
C       -0.7323431442   -0.1885852581   -0.7513629248
H       -1.1150717303    0.7294425370   -0.4160824717
H        0.4086596254   -2.0556610728   -1.1538845929
C        0.4256659919    1.3524197557    1.2562882296
N        1.2181351693    1.3790918891    2.1169993065
6    
Image 7/11, Energy =  -169.0122319572 (+25.450 kcal/mol)
C       -0.2153281549   -1.1466695235   -1.0076584181
C       -0.7117121811   -0.1000193017   -0.6819333684
H       -1.2621482672    0.7698168474   -0.5195248757
H        0.5199032652   -1.8882304227   -0.9310223512
C        0.4516384174    1.1324201613    1.1321211247
N        1.2176469205    1.2326822359    2.0080178880
6    
Image 8/11, Energy =  -168.9961737826 (+35.527 kcal/mol)
C       -0.2534059426   -1.1080545549   -1.0111470883
C       -0.6127839944    0.0031807060   -0.5338915326
H       -1.3304134439    0.7759442635   -0.5787382448
H        0.5765992394   -1.7389361871   -0.7726983775
C        0.4533884675    0.9104396524    1.0036234292
N        1.1666156740    1.1574261167    1.8928518130
6    
Image 9/11, Energy =  -169.0201467769 (+20.484 kcal/mol)
C       -0.2717383455   -1.0743617848   -1.0070212865
C       -0.5025805614    0.0905017571   -0.3773410340
H       -1.3145068387    0.7751989856   -0.5695879524
H        0.5964318066   -1.6743726167   -0.7068726736
C        0.4036704991    0.7753008676    0.8866610439
N        1.0887234401    1.1077327872    1.7741619007
6    
Image 10/11, Energy =  -169.0437609544 (+5.666 kcal/mol)
C       -0.2721093513   -1.0384613434   -0.9953339881
C       -0.4664498990    0.1336943575   -0.3047184047
H       -1.3026915424    0.8069996864   -0.5503883163
H        0.6404231461   -1.5232274468   -0.5526624607
C        0.3524169885    0.6272448767    0.7650856657
N        1.0484106581    0.9937498643    1.6380174988
