6    
Image 0/11, Energy =  -169.0522692293 (+0.343 kcal/mol)
C       -0.3689809232   -1.4576547332   -1.3858823910
C       -0.1536196575   -0.5941379364   -0.5627748996
H        0.0498937432    0.2058682499    0.1931202386
H       -0.5557149982   -2.2230003307   -2.1042277546
C        0.4068909404    1.6172446315    1.5286738868
N        0.6215308952    2.4516801189    2.3310909145
6    
Image 1/11, Energy =  -169.0528156589 (+0.000 kcal/mol)
C       -0.3493273560   -1.4537050390   -1.3641268415
C       -0.2749035828   -0.5267426918   -0.6055679881
H       -0.1421008321    0.2849935478    0.1051059265
H       -0.3908545500   -2.2741319022   -2.0173822757
C        0.3898740832    1.6293913796    1.5180581537
N        0.7673122374    2.3401947055    2.3639130214
6    
Image 2/11, Energy =  -169.0507284588 (+1.310 kcal/mol)
C       -0.3267270916   -1.4405099204   -1.3332764099
C       -0.3936224432   -0.4603166859   -0.6486329094
H       -0.3336618640    0.3808095217    0.0268640077
H       -0.2233320683   -2.3082715797   -1.9116105793
C        0.3787004105    1.6285365797    1.4953632394
N        0.8986430560    2.1997520843    2.3712926492
6    
Image 3/11, Energy =  -169.0474272950 (+3.381 kcal/mol)
C       -0.2975909525   -1.4154689766   -1.2861788172
C       -0.5043560494   -0.3944919170   -0.6895354830
H       -0.5262492141    0.4757969451   -0.0621004876
H       -0.0586124238   -2.3084588563   -1.7749707996
C        0.3774500074    1.6145193525    1.4605410599
N        1.0093586319    2.0281034517    2.3522445262
6    
Image 4/11, Energy =  -169.0431060579 (+6.093 kcal/mol)
C       -0.2641847991   -1.3691446846   -1.2222799083
C       -0.6021394600   -0.3348304102   -0.7250502975
H       -0.7189914639    0.5663411657   -0.1639552147
H        0.1005753076   -2.2726794303   -1.6061167414
C        0.3878617309    1.5806339453    1.4107624311
N        1.0968786838    1.8296794133    2.3066397302
6    
Image 5/11, Energy =  -169.0375761814 (+9.563 kcal/mol)
C       -0.2302322251   -1.3050931707   -1.1434268651
C       -0.6819222736   -0.2728497131   -0.7512285736
H       -0.9102900044    0.6476263460   -0.2765935071
H        0.2519832207   -2.1961086746   -1.4073151627
C        0.4097554777    1.5101920016    1.3443599181
N        1.1607058041    1.6162332093    2.2342041904
6    
Image 6/11, Energy =  -169.0297858523 (+14.451 kcal/mol)
C       -0.2054128764   -1.2284536254   -1.0612995573
C       -0.7324465558   -0.2021478719   -0.7526575322
H       -1.0942347726    0.7154532521   -0.3928024513
H        0.3920985930   -2.0749359076   -1.1881000394
C        0.4398445854    1.3745397638    1.2532553699
N        1.2001510260    1.4155443868    2.1416042100
6    
Image 7/11, Energy =  -169.0140894096 (+24.301 kcal/mol)
C       -0.2127968635   -1.1521598984   -1.0058642979
C       -0.7197275509   -0.1104297012   -0.6916017765
H       -1.2566209170    0.7626251849   -0.5081791837
H        0.5134765010   -1.9015910586   -0.9510560787
C        0.4673236603    1.1579801126    1.1285625201
N        1.2083451700    1.2435753577    2.0281388161
6    
Image 8/11, Energy =  -168.9961398722 (+35.565 kcal/mol)
C       -0.2571077105   -1.1048102981   -1.0015881019
C       -0.6147643598    0.0174718803   -0.5328541126
H       -1.3539248708    0.7719401692   -0.5970724246
H        0.5903045940   -1.7038689253   -0.7367318847
C        0.4677121528    0.8989719577    0.9805706712
N        1.1677801943    1.1202952127    1.8876758516
6    
Image 9/11, Energy =  -169.0164528861 (+22.818 kcal/mol)
C       -0.2712344978   -1.0787287257   -1.0001472618
C       -0.5208408863    0.0904224267   -0.3998510912
H       -1.3369444408    0.7743576979   -0.5840863155
H        0.6075157574   -1.6535481074   -0.6855016699
C        0.4180345431    0.7832997521    0.8850829635
N        1.1034695245    1.0841969523    1.7845033731
6    
Image 10/11, Energy =  -169.0437609544 (+5.682 kcal/mol)
C       -0.2721093513   -1.0384613434   -0.9953339881
C       -0.4664498990    0.1336943575   -0.3047184047
H       -1.3026915424    0.8069996864   -0.5503883163
H        0.6404231461   -1.5232274468   -0.5526624607
C        0.3524169885    0.6272448767    0.7650856657
N        1.0484106581    0.9937498643    1.6380174988
