6    
Image 0/11, Energy =  -169.0522692293 (+0.316 kcal/mol)
C       -0.3689809232   -1.4576547332   -1.3858823910
C       -0.1536196575   -0.5941379364   -0.5627748996
H        0.0498937432    0.2058682499    0.1931202386
H       -0.5557149982   -2.2230003307   -2.1042277546
C        0.4068909404    1.6172446315    1.5286738868
N        0.6215308952    2.4516801189    2.3310909145
6    
Image 1/11, Energy =  -169.0527721583 (+0.000 kcal/mol)
C       -0.3517272979   -1.4531252275   -1.3635022266
C       -0.2745662851   -0.5263872083   -0.6066040911
H       -0.1406199679    0.2817261038    0.1087676085
H       -0.3911026462   -2.2711782982   -2.0192165651
C        0.3979979189    1.6199844377    1.5207192704
N        0.7600182779    2.3489801925    2.3598360004
6    
Image 2/11, Energy =  -169.0506073618 (+1.358 kcal/mol)
C       -0.3293689639   -1.4395446750   -1.3350461625
C       -0.3937878118   -0.4604175812   -0.6491393560
H       -0.3314596720    0.3762766652    0.0312246524
H       -0.2251212007   -2.3050036488   -1.9146234282
C        0.3925175490    1.6104912944    1.5000195772
N        0.8872200987    2.2181979448    2.3675647150
6    
Image 3/11, Energy =  -169.0472339718 (+3.475 kcal/mol)
C       -0.2997630801   -1.4126052059   -1.2905306546
C       -0.5056276051   -0.3982691347   -0.6872427879
H       -0.5255846457    0.4713633321   -0.0580233112
H       -0.0608367449   -2.3052648876   -1.7797236155
C        0.3944357118    1.5902384288    1.4634482583
N        0.9973763632    2.0545374669    2.3520721098
6    
Image 4/11, Energy =  -169.0428574539 (+6.222 kcal/mol)
C       -0.2669521014   -1.3687939797   -1.2264844037
C       -0.6027754569   -0.3378746953   -0.7228063230
H       -0.7190868001    0.5623377327   -0.1601629635
H        0.0983676307   -2.2702812375   -1.6126159791
C        0.4028109789    1.5578639928    1.4100459663
N        1.0876357481    1.8567481863    2.3120237025
6    
Image 5/11, Energy =  -169.0373801778 (+9.659 kcal/mol)
C       -0.2336320854   -1.3073748469   -1.1468425278
C       -0.6815232859   -0.2747894636   -0.7482339594
H       -0.9124621907    0.6450111075   -0.2738761972
H        0.2516418184   -2.1954205711   -1.4140188821
C        0.4211939430    1.4967140279    1.3405429072
N        1.1547817998    1.6358597449    2.2424286592
6    
Image 6/11, Energy =  -169.0298242643 (+14.400 kcal/mol)
C       -0.2075204088   -1.2311209888   -1.0641614780
C       -0.7296741488   -0.2045876954   -0.7490970450
H       -1.0941868146    0.7138924504   -0.3883911729
H        0.3907375390   -2.0790606438   -1.1952786218
C        0.4461863116    1.3771833417    1.2487520313
N        1.1944575212    1.4236935340    2.1481762863
6    
Image 7/11, Energy =  -169.0150105474 (+23.696 kcal/mol)
C       -0.2096286539   -1.1565301807   -1.0042178598
C       -0.7182172628   -0.1137264403   -0.6919997679
H       -1.2496415589    0.7613589678   -0.4974223323
H        0.5079624558   -1.9164736880   -0.9684666545
C        0.4679524912    1.1755402563    1.1273966878
N        1.2015725283    1.2498310821    2.0347099261
6    
Image 8/11, Energy =  -168.9960062886 (+35.621 kcal/mol)
C       -0.2522420036   -1.1044914436   -0.9932949206
C       -0.6180828181    0.0153379819   -0.5378343633
H       -1.3527563270    0.7756400573   -0.5906836457
H        0.5907084281   -1.7194191046   -0.7494803768
C        0.4680794029    0.9135214890    0.9787043988
N        1.1642933178    1.1194110165    1.8925889067
6    
Image 9/11, Energy =  -169.0149785636 (+23.716 kcal/mol)
C       -0.2713471307   -1.0809987976   -0.9996468281
C       -0.5187589319    0.0881091210   -0.4010251385
H       -1.3329089448    0.7741829518   -0.5769918537
H        0.6038934483   -1.6720425051   -0.7032450023
C        0.4195105842    0.7976284859    0.8880190418
N        1.0996109748    1.0931207400    1.7928897792
6    
Image 10/11, Energy =  -169.0437609544 (+5.655 kcal/mol)
C       -0.2721093513   -1.0384613434   -0.9953339881
C       -0.4664498990    0.1336943575   -0.3047184047
H       -1.3026915424    0.8069996864   -0.5503883163
H        0.6404231461   -1.5232274468   -0.5526624607
C        0.3524169885    0.6272448767    0.7650856657
N        1.0484106581    0.9937498643    1.6380174988
