6    
Image 0/11, Energy =  -169.0522692293 (+0.230 kcal/mol)
C       -0.3689809232   -1.4576547332   -1.3858823910
C       -0.1536196575   -0.5941379364   -0.5627748996
H        0.0498937432    0.2058682499    0.1931202386
H       -0.5557149982   -2.2230003307   -2.1042277546
C        0.4068909404    1.6172446315    1.5286738868
N        0.6215308952    2.4516801189    2.3310909145
6    
Image 1/11, Energy =  -169.0526353252 (+0.000 kcal/mol)
C       -0.3512306818   -1.4486055682   -1.3676421436
C       -0.2778282009   -0.5271605895   -0.6028839721
H       -0.1355075889    0.2750098852    0.1139885978
H       -0.3956890163   -2.2667236685   -2.0225221975
C        0.4196512937    1.5975817597    1.5320409107
N        0.7406041942    2.3698981811    2.3470188017
6    
Image 2/11, Energy =  -169.0501547105 (+1.557 kcal/mol)
C       -0.3270829108   -1.4340881832   -1.3391650178
C       -0.3986360638   -0.4610492916   -0.6438120464
H       -0.3235557981    0.3693422061    0.0398872377
H       -0.2337186859   -2.2986948792   -1.9218042254
C        0.4271259851    1.5672369427    1.5125209730
N        0.8558674730    2.2572532048    2.3523730775
6    
Image 3/11, Energy =  -169.0464899722 (+3.856 kcal/mol)
C       -0.2986864047   -1.4068532201   -1.2935317521
C       -0.5092854301   -0.3996212187   -0.6837891498
H       -0.5211357843    0.4637855157   -0.0483272288
H       -0.0695565151   -2.2991181876   -1.7900914121
C        0.4350016318    1.5338865289    1.4728345234
N        0.9636625015    2.1079205814    2.3429050189
6    
Image 4/11, Energy =  -169.0419582469 (+6.700 kcal/mol)
C       -0.2665942753   -1.3672873806   -1.2276144822
C       -0.6059534849   -0.3391392172   -0.7185638942
H       -0.7225336436    0.5546165051   -0.1539370173
H        0.0922524474   -2.2636594429   -1.6272940596
C        0.4423845114    1.4987786108    1.4140839288
N        1.0604444440    1.9166909243    2.3133255242
6    
Image 5/11, Energy =  -169.0366562652 (+10.027 kcal/mol)
C       -0.2325338670   -1.3085365442   -1.1448436148
C       -0.6849931540   -0.2783603269   -0.7424433145
H       -0.9187988071    0.6376118402   -0.2700801348
H        0.2471119762   -2.1911143279   -1.4329976397
C        0.4521093334    1.4542017548    1.3356667813
N        1.1371045175    1.6861976032    2.2546979224
6    
Image 6/11, Energy =  -169.0297521462 (+14.359 kcal/mol)
C       -0.2026907439   -1.2327279799   -1.0559861764
C       -0.7347357472   -0.2079926842   -0.7444997623
H       -1.0961776959    0.7094169831   -0.3869856469
H        0.3872495169   -2.0791608655   -1.2100878147
C        0.4634640864    1.3728148594    1.2384323986
N        1.1828905830    1.4376496856    2.1591270019
6    
Image 7/11, Energy =  -169.0164846608 (+22.685 kcal/mol)
C       -0.2011250188   -1.1561948484   -0.9920245868
C       -0.7197151361   -0.1216509685   -0.6912660008
H       -1.2400331020    0.7610405543   -0.4880030233
H        0.5007159901   -1.9330886647   -0.9885689409
C        0.4701751625    1.2090274418    1.1195090326
N        1.1899821037    1.2408664831    2.0403535191
6    
Image 8/11, Energy =  -168.9961814056 (+35.425 kcal/mol)
C       -0.2376271282   -1.1080420435   -0.9815696708
C       -0.6237533492   -0.0025323368   -0.5494243577
H       -1.3291720795    0.7783916698   -0.5631410960
H        0.5757106861   -1.7706750599   -0.8009010135
C        0.4604282498    0.9740618473    0.9851919764
N        1.1544136211    1.1287959198    1.9098441613
6    
Image 9/11, Energy =  -169.0131383911 (+24.785 kcal/mol)
C       -0.2659329735   -1.0808542836   -0.9929674192
C       -0.5127245103    0.0806586470   -0.3988026698
H       -1.3132220977    0.7749316495   -0.5614082792
H        0.5914576470   -1.7005050118   -0.7345502140
C        0.4119766147    0.8240603033    0.8878653211
N        1.0884453198    1.1017086922    1.7998632596
6    
Image 10/11, Energy =  -169.0437609544 (+5.569 kcal/mol)
C       -0.2721093513   -1.0384613434   -0.9953339881
C       -0.4664498990    0.1336943575   -0.3047184047
H       -1.3026915424    0.8069996864   -0.5503883163
H        0.6404231461   -1.5232274468   -0.5526624607
C        0.3524169885    0.6272448767    0.7650856657
N        1.0484106581    0.9937498643    1.6380174988
