6    
Image 0/11, Energy =  -169.0522692293 (+0.275 kcal/mol)
C       -0.3689809232   -1.4576547332   -1.3858823910
C       -0.1536196575   -0.5941379364   -0.5627748996
H        0.0498937432    0.2058682499    0.1931202386
H       -0.5557149982   -2.2230003307   -2.1042277546
C        0.4068909404    1.6172446315    1.5286738868
N        0.6215308952    2.4516801189    2.3310909145
6    
Image 1/11, Energy =  -169.0527075801 (+0.000 kcal/mol)
C       -0.3521039224   -1.4507847782   -1.3651577925
C       -0.2759786269   -0.5269342410   -0.6054866712
H       -0.1380638485    0.2776934914    0.1122383642
H       -0.3931502342   -2.2682722860   -2.0210735880
C        0.4098269222    1.6077893661    1.5265782389
N        0.7494697095    2.3605084475    2.3529014454
6    
Image 2/11, Energy =  -169.0503894340 (+1.455 kcal/mol)
C       -0.3287967054   -1.4366811952   -1.3374252434
C       -0.3961213424   -0.4609522805   -0.6470278995
H       -0.3274013949    0.3721152557    0.0361561369
H       -0.2294505442   -2.3013795715   -1.9183186487
C        0.4111817761    1.5866034153    1.5064629433
N        0.8705882103    2.2402943758    2.3601527097
6    
Image 3/11, Energy =  -169.0468454723 (+3.679 kcal/mol)
C       -0.2996234745   -1.4092247470   -1.2935385540
C       -0.5077429404   -0.4000449587   -0.6847836097
H       -0.5234183635    0.4668648678   -0.0530411015
H       -0.0653454647   -2.3015119038   -1.7849751903
C        0.4162867980    1.5586361882    1.4676296986
N        0.9798434443    2.0852805531    2.3487087561
6    
Image 4/11, Energy =  -169.0424022880 (+6.467 kcal/mol)
C       -0.2678121350   -1.3676113990   -1.2280218880
C       -0.6041945061   -0.3399092681   -0.7206168019
H       -0.7205546534    0.5578473410   -0.1565912821
H        0.0951027871   -2.2664295532   -1.6205603484
C        0.4237936763    1.5256097973    1.4112597214
N        1.0736648303    1.8904930815    2.3145305985
6    
Image 5/11, Energy =  -169.0370140302 (+9.848 kcal/mol)
C       -0.2345025879   -1.3085450952   -1.1468810946
C       -0.6829957745   -0.2771792532   -0.7450257597
H       -0.9158191022    0.6413153509   -0.2713361267
H        0.2499060240   -2.1934018338   -1.4243394927
C        0.4374504000    1.4741870366    1.3368244342
N        1.1459610397    1.6636237935    2.2507580394
6    
Image 6/11, Energy =  -169.0298221099 (+14.361 kcal/mol)
C       -0.2060669792   -1.2328627511   -1.0615336031
C       -0.7316472575   -0.2064096600   -0.7462941486
H       -1.0951550912    0.7120038949   -0.3865541865
H        0.3894277924   -2.0803504250   -1.2032300133
C        0.4554392395    1.3763070077    1.2428944403
N        1.1880022955    1.4313119317    2.1547175114
6    
Image 7/11, Energy =  -169.0159296501 (+23.078 kcal/mol)
C       -0.2048973920   -1.1580940185   -0.9988669603
C       -0.7186338294   -0.1176157026   -0.6920102549
H       -1.2435339211    0.7613704254   -0.4899064092
H        0.5035258362   -1.9284370319   -0.9818299152
C        0.4695011901    1.1953684375    1.1244911582
N        1.1940381158    1.2474078877    2.0381223810
6    
Image 8/11, Energy =  -168.9959832164 (+35.595 kcal/mol)
C       -0.2446397427   -1.1056968412   -0.9863522471
C       -0.6210067784    0.0062635798   -0.5445378447
H       -1.3419042193    0.7783228547   -0.5758427164
H        0.5842594425   -1.7476944365   -0.7763722534
C        0.4647328642    0.9445217208    0.9816882306
N        1.1585584337    1.1242831190    1.9014168305
6    
Image 9/11, Energy =  -169.0137155699 (+24.468 kcal/mol)
C       -0.2691964459   -1.0817311247   -0.9974474585
C       -0.5150117879    0.0835690786   -0.4002800503
H       -1.3217715631    0.7736861990   -0.5674349192
H        0.5963096557   -1.6904799998   -0.7230992555
C        0.4171282642    0.8145880497    0.8906380968
N        1.0925418769    1.1003677934    1.7976235851
6    
Image 10/11, Energy =  -169.0437609544 (+5.614 kcal/mol)
C       -0.2721093513   -1.0384613434   -0.9953339881
C       -0.4664498990    0.1336943575   -0.3047184047
H       -1.3026915424    0.8069996864   -0.5503883163
H        0.6404231461   -1.5232274468   -0.5526624607
C        0.3524169885    0.6272448767    0.7650856657
N        1.0484106581    0.9937498643    1.6380174988
