6    
Image 0/11, Energy =  -169.0522692293 (+0.000 kcal/mol)
C       -0.3689809232   -1.4576547332   -1.3858823910
C       -0.1536196575   -0.5941379364   -0.5627748996
H        0.0498937432    0.2058682499    0.1931202386
H       -0.5557149982   -2.2230003307   -2.1042277546
C        0.4068909404    1.6172446315    1.5286738868
N        0.6215308952    2.4516801189    2.3310909145
6    
Image 1/11, Energy =  -169.0519705695 (+0.187 kcal/mol)
C       -0.3629148931   -1.4489298939   -1.3545515043
C       -0.2749178612   -0.5263398458   -0.5985079726
H       -0.1173401543    0.2818421464    0.1032890685
H       -0.3977238099   -2.2489306949   -2.0195357419
C        0.4433896169    1.5614983640    1.5406424897
N        0.7095071016    2.3808599258    2.3286636593
6    
Image 2/11, Energy =  -169.0484130890 (+2.420 kcal/mol)
C       -0.3381683276   -1.4326390839   -1.3318400575
C       -0.3935645108   -0.4696246145   -0.6291771214
H       -0.3036752269    0.3672465152    0.0369220170
H       -0.2481071814   -2.2726634596   -1.9387108648
C        0.4889275111    1.4849847791    1.5481040311
N        0.7945877355    2.3226958618    2.3147019955
6    
Image 3/11, Energy =  -169.0438545600 (+5.280 kcal/mol)
C       -0.3017369891   -1.3995152405   -1.2986491661
C       -0.4929950846   -0.4140381173   -0.6504925311
H       -0.5254426788    0.4552201504   -0.0306483423
H       -0.0894510622   -2.2742288482   -1.8222791227
C        0.5232659131    1.4235388854    1.5030728989
N        0.8863599015    2.2090231694    2.2989962632
6    
Image 4/11, Energy =  -169.0387220227 (+8.501 kcal/mol)
C       -0.2648261658   -1.3545514906   -1.2290953077
C       -0.5654964169   -0.3448375246   -0.6841734906
H       -0.7403760511    0.5537868574   -0.1450359978
H        0.0669135718   -2.2487161378   -1.6467600526
C        0.5052918699    1.4024405239    1.4153666151
N        0.9984931910    1.9918777717    2.2896982336
6    
Image 5/11, Energy =  -169.0325712854 (+12.361 kcal/mol)
C       -0.2303112389   -1.2982274305   -1.1434674973
C       -0.6320464958   -0.2665760526   -0.7027645886
H       -0.9595966113    0.6284435677   -0.2877604127
H        0.2266130991   -2.1727156191   -1.4376504309
C        0.4914681606    1.3717476069    1.3222031251
N        1.1038730836    1.7373279276    2.2494398043
6    
Image 6/11, Energy =  -169.0253814546 (+16.872 kcal/mol)
C       -0.2062214532   -1.2273687263   -1.0544300737
C       -0.6817627694   -0.2031238023   -0.6937901228
H       -1.1299604593    0.6794963407   -0.4059682133
H        0.3630677620   -2.0631508770   -1.2407184693
C        0.4898524905    1.3191786474    1.2238667457
N        1.1650244284    1.4949684173    2.1710401323
6    
Image 7/11, Energy =  -169.0138482385 (+24.110 kcal/mol)
C       -0.2039748630   -1.1567533342   -0.9595665252
C       -0.6895712932   -0.1267813520   -0.6482847936
H       -1.2416736379    0.7346694525   -0.5046408233
H        0.4826359547   -1.9268275949   -1.0409244134
C        0.4772185939    1.2291562719    1.1033770204
N        1.1753652454    1.2465365553    2.0500395339
6    
Image 8/11, Energy =  -168.9942038353 (+36.437 kcal/mol)
C       -0.2322402524   -1.0990406406   -0.9106953076
C       -0.6297799666   -0.0189407595   -0.5343488811
H       -1.3013192499    0.7801427297   -0.5846294928
H        0.5760780722   -1.7730095638   -0.8367973499
C        0.4402407314    1.0598415270    0.9615677506
N        1.1470206652    1.0510067039    1.9049032829
6    
Image 9/11, Energy =  -169.0213162803 (+19.423 kcal/mol)
C       -0.2710568434   -1.0739582730   -0.9390171823
C       -0.5029845311    0.1174875793   -0.3572809157
H       -1.3080993066    0.7863461390   -0.5973285051
H        0.6169003074   -1.6707356990   -0.7101242952
C        0.3861647093    0.8261968635    0.8356447652
N        1.0790756645    1.0146633865    1.7681061342
6    
Image 10/11, Energy =  -169.0437609544 (+5.339 kcal/mol)
C       -0.2721093513   -1.0384613434   -0.9953339881
C       -0.4664498990    0.1336943575   -0.3047184047
H       -1.3026915424    0.8069996864   -0.5503883163
H        0.6404231461   -1.5232274468   -0.5526624607
C        0.3524169885    0.6272448767    0.7650856657
N        1.0484106581    0.9937498643    1.6380174988
