6    
Image 0/11, Energy =  -169.0522692293 (+0.000 kcal/mol)
C       -0.3689809232   -1.4576547332   -1.3858823910
C       -0.1536196575   -0.5941379364   -0.5627748996
H        0.0498937432    0.2058682499    0.1931202386
H       -0.5557149982   -2.2230003307   -2.1042277546
C        0.4068909404    1.6172446315    1.5286738868
N        0.6215308952    2.4516801189    2.3310909145
6    
Image 1/11, Energy =  -169.0522614568 (+0.005 kcal/mol)
C       -0.3537175308   -1.4522263320   -1.3627092533
C       -0.2697797011   -0.5175368268   -0.6119479286
H       -0.1374533425    0.2713686911    0.1233429606
H       -0.4020665715   -2.2636812837   -2.0272888401
C        0.4417444752    1.5741157368    1.5421745990
N        0.7212726706    2.3879600138    2.3364284600
6    
Image 2/11, Energy =  -169.0492909831 (+1.869 kcal/mol)
C       -0.3351320680   -1.4368420776   -1.3309282703
C       -0.3875381803   -0.4513388565   -0.6506334715
H       -0.3211075867    0.3571913738    0.0609619343
H       -0.2419610905   -2.2879639783   -1.9357415872
C        0.4688519287    1.5232373810    1.5264516526
N        0.8168869967    2.2957161578    2.3298897415
6    
Image 3/11, Energy =  -169.0453266884 (+4.357 kcal/mol)
C       -0.2989192597   -1.4108640708   -1.2804687830
C       -0.5046313770   -0.3916992025   -0.6858972201
H       -0.5156485141    0.4582014827   -0.0363001169
H       -0.0811044195   -2.2873206598   -1.8067400383
C        0.4776080143    1.4752968064    1.4865176256
N        0.9226955555    2.1563856431    2.3228885327
6    
Image 4/11, Energy =  -169.0405704676 (+7.341 kcal/mol)
C       -0.2517406241   -1.3644440988   -1.2142033647
C       -0.6145874434   -0.3363173694   -0.7220880371
H       -0.7287957731    0.5494156470   -0.1429438232
H        0.0811458424   -2.2575952542   -1.6456376326
C        0.4852802871    1.4354613960    1.4184792720
N        1.0286977095    1.9734796791    2.3063935855
6    
Image 5/11, Energy =  -169.0353901885 (+10.592 kcal/mol)
C       -0.2089842482   -1.3032597005   -1.1304512436
C       -0.6970186314   -0.2760953808   -0.7419330398
H       -0.9311320594    0.6399452409   -0.2638785715
H        0.2367614348   -2.1946492616   -1.4527820356
C        0.4828884718    1.4040692538    1.3305110222
N        1.1174850314    1.7299898481    2.2585338677
6    
Image 6/11, Energy =  -169.0291252369 (+14.523 kcal/mol)
C       -0.1843277956   -1.2274397347   -1.0365839444
C       -0.7444686156   -0.2116964868   -0.7341466433
H       -1.1092876245    0.7188827476   -0.3893258761
H        0.3847544267   -2.0888270403   -1.2354291657
C        0.4819866028    1.3479216017    1.2286926381
N        1.1713430049    1.4611589117    2.1667929908
6    
Image 7/11, Energy =  -169.0171052012 (+22.066 kcal/mol)
C       -0.1890965326   -1.1543048537   -0.9689895153
C       -0.7317790911   -0.1245776276   -0.6781370348
H       -1.2456460207    0.7737084849   -0.4956016056
H        0.5089942998   -1.9416333673   -1.0022658150
C        0.4757095617    1.2283313677    1.1061103116
N        1.1818177825    1.2184759939    2.0388836603
6    
Image 8/11, Energy =  -168.9964996602 (+34.996 kcal/mol)
C       -0.2313240869   -1.1086712658   -0.9688119771
C       -0.6269768590   -0.0164796895   -0.5465807605
H       -1.3141526070    0.7842981066   -0.5588283445
H        0.5714272263   -1.7988015013   -0.8261151483
C        0.4534593904    1.0326529532    0.9850332383
N        1.1475669361    1.1070013942    1.9153029923
6    
Image 9/11, Energy =  -169.0167611330 (+22.282 kcal/mol)
C       -0.2670600704   -1.0737942910   -0.9860532855
C       -0.4954124279    0.0914102421   -0.3732708172
H       -1.3081680643    0.7668757654   -0.5580815067
H        0.5894664383   -1.7049237741   -0.7444550138
C        0.4034474039    0.8322116951    0.8710207253
N        1.0777267204    1.0882203583    1.7908398978
6    
Image 10/11, Energy =  -169.0437609544 (+5.339 kcal/mol)
C       -0.2721093513   -1.0384613434   -0.9953339881
C       -0.4664498990    0.1336943575   -0.3047184047
H       -1.3026915424    0.8069996864   -0.5503883163
H        0.6404231461   -1.5232274468   -0.5526624607
C        0.3524169885    0.6272448767    0.7650856657
N        1.0484106581    0.9937498643    1.6380174988
