6    
Image 0/11, Energy =  -169.0522692293 (+0.202 kcal/mol)
C       -0.3689809232   -1.4576547332   -1.3858823910
C       -0.1536196575   -0.5941379364   -0.5627748996
H        0.0498937432    0.2058682499    0.1931202386
H       -0.5557149982   -2.2230003307   -2.1042277546
C        0.4068909404    1.6172446315    1.5286738868
N        0.6215308952    2.4516801189    2.3310909145
6    
Image 1/11, Energy =  -169.0525913169 (+0.000 kcal/mol)
C       -0.3416988777   -1.4518971040   -1.3536822052
C       -0.2704219481   -0.5162578384   -0.6075030532
H       -0.1503485070    0.3058571077    0.0933566790
H       -0.3864312954   -2.2788123787   -1.9977185429
C        0.3589264505    1.6464389004    1.4980818891
N        0.7899741776    2.2946713126    2.3674652291
6    
Image 2/11, Energy =  -169.0502745175 (+1.454 kcal/mol)
C       -0.3114760758   -1.4335773539   -1.3122699689
C       -0.3869817401   -0.4386567176   -0.6503468884
H       -0.3492602232    0.4195935370    0.0038077118
H       -0.2128379352   -2.3133452854   -1.8708826355
C        0.3256508408    1.6600807830    1.4693615323
N        0.9349051332    2.1059050360    2.3603302455
6    
Image 3/11, Energy =  -169.0467322822 (+3.677 kcal/mol)
C       -0.2776331686   -1.3979683583   -1.2552779586
C       -0.4985692208   -0.3656747643   -0.6919148175
H       -0.5511670574    0.5250986307   -0.0953371107
H       -0.0388898952   -2.3074571548   -1.7142757440
C        0.3156804853    1.6469930635    1.4417634306
N        1.0505788566    1.8990085819    2.3150421978
6    
Image 4/11, Energy =  -169.0420253128 (+6.630 kcal/mol)
C       -0.2427138052   -1.3452895153   -1.1850958264
C       -0.6004134221   -0.2992948061   -0.7297614833
H       -0.7542496898    0.6158118121   -0.2054468290
H        0.1294762666   -2.2588729222   -1.5330884275
C        0.3291115219    1.5923889975    1.4073517444
N        1.1387891284    1.6952564320    2.2460408198
6    
Image 5/11, Energy =  -169.0361083711 (+10.343 kcal/mol)
C       -0.2119066386   -1.2776037439   -1.1077164569
C       -0.6845991138   -0.2380208110   -0.7573833048
H       -0.9518394988    0.6884684110   -0.3221318321
H        0.2852854332   -2.1691643088   -1.3343483482
C        0.3607013239    1.4867895935    1.3539687313
N        1.2023584940    1.5095308568    2.1676112091
6    
Image 6/11, Energy =  -169.0277571245 (+15.584 kcal/mol)
C       -0.1957260971   -1.2018302380   -1.0380620810
C       -0.7339530024   -0.1738406285   -0.7563708003
H       -1.1313734947    0.7434393595   -0.4366076738
H        0.4207005650   -2.0412845113   -1.1231098588
C        0.4016115511    1.3243472052    1.2683418250
N        1.2387404781    1.3491688101    2.0858085878
6    
Image 7/11, Energy =  -169.0119818727 (+25.483 kcal/mol)
C       -0.2107773060   -1.1413337731   -1.0053227251
C       -0.7115864457   -0.0953821939   -0.6837182333
H       -1.2647113502    0.7743136682   -0.5271727920
H        0.5196807582   -1.8878096427   -0.9267875526
C        0.4392900895    1.1134471293    1.1453902354
N        1.2281042541    1.2367648089    1.9976110665
6    
Image 8/11, Energy =  -168.9962095752 (+35.380 kcal/mol)
C       -0.2521017274   -1.1071225378   -1.0124967807
C       -0.6147172349    0.0007663608   -0.5348186425
H       -1.3285275706    0.7771612328   -0.5801577220
H        0.5733094678   -1.7452322116   -0.7799511606
C        0.4535624527    0.9029231068    1.0129913839
N        1.1684746123    1.1715040456    1.8944329210
6    
Image 9/11, Energy =  -169.0185482941 (+21.362 kcal/mol)
C       -0.2719625407   -1.0757313618   -1.0098519562
C       -0.5069208751    0.0856173936   -0.3812100654
H       -1.3135117928    0.7752545914   -0.5708757088
H        0.5941013435   -1.6770996172   -0.7120044684
C        0.4053041628    0.7756593125    0.8955899561
N        1.0929897024    1.1162996774    1.7783522409
6    
Image 10/11, Energy =  -169.0437609544 (+5.541 kcal/mol)
C       -0.2721093513   -1.0384613434   -0.9953339881
C       -0.4664498990    0.1336943575   -0.3047184047
H       -1.3026915424    0.8069996864   -0.5503883163
H        0.6404231461   -1.5232274468   -0.5526624607
C        0.3524169885    0.6272448767    0.7650856657
N        1.0484106581    0.9937498643    1.6380174988
