6    
Image 0/11, Energy =  -169.0522692293 (+0.348 kcal/mol)
C       -0.3689809232   -1.4576547332   -1.3858823910
C       -0.1536196575   -0.5941379364   -0.5627748996
H        0.0498937432    0.2058682499    0.1931202386
H       -0.5557149982   -2.2230003307   -2.1042277546
C        0.4068909404    1.6172446315    1.5286738868
N        0.6215308952    2.4516801189    2.3310909145
6    
Image 1/11, Energy =  -169.0528245860 (+0.000 kcal/mol)
C       -0.3464678027   -1.4524526378   -1.3646619779
C       -0.2754931043   -0.5280115117   -0.6050238372
H       -0.1432787597    0.2861911354    0.1026138908
H       -0.3915540630   -2.2752134083   -2.0152385259
C        0.3851868280    1.6342011279    1.5161554794
N        0.7716069014    2.3352852943    2.3661549669
6    
Image 2/11, Energy =  -169.0507491621 (+1.302 kcal/mol)
C       -0.3213483260   -1.4399891321   -1.3319735059
C       -0.3941442643   -0.4600901280   -0.6464272235
H       -0.3345861003    0.3853740575    0.0225189487
H       -0.2242927044   -2.3096232571   -1.9075181830
C        0.3688769307    1.6386408597    1.4907337660
N        0.9054944636    2.1856875998    2.3726661953
6    
Image 3/11, Energy =  -169.0475018210 (+3.340 kcal/mol)
C       -0.2933763166   -1.4120403257   -1.2817652652
C       -0.5024157420   -0.3949516054   -0.6895997383
H       -0.5262940678    0.4809779275   -0.0671376509
H       -0.0593024857   -2.3098897503   -1.7687330554
C        0.3649685336    1.6280429188    1.4568514507
N        1.0164200778    2.0078608346    2.3503842577
6    
Image 4/11, Energy =  -169.0431406722 (+6.077 kcal/mol)
C       -0.2605219477   -1.3679588223   -1.2169505755
C       -0.6002431384   -0.3318492443   -0.7251574349
H       -0.7206076472    0.5701407532   -0.1692815957
H        0.1011459675   -2.2717067208   -1.5997634380
C        0.3767860132    1.5909356303    1.4104194997
N        1.1034407521    1.8104384028    2.3007335439
6    
Image 5/11, Energy =  -169.0375775506 (+9.568 kcal/mol)
C       -0.2266760399   -1.3044624320   -1.1382888780
C       -0.6826255507   -0.2691752666   -0.7516115229
H       -0.9118226859    0.6506058702   -0.2806398645
H        0.2531103298   -2.1941634019   -1.4035050791
C        0.4019047407    1.5120940946    1.3459565205
N        1.1661092056    1.6051011341    2.2280888238
6    
Image 6/11, Energy =  -169.0295807686 (+14.586 kcal/mol)
C       -0.2037532439   -1.2237935481   -1.0554327715
C       -0.7369053073   -0.1994322160   -0.7555073017
H       -1.0991172976    0.7199693765   -0.4005806609
H        0.3974458063   -2.0684690741   -1.1779907592
C        0.4357581132    1.3684651154    1.2547655699
N        1.2065719290    1.4032603438    2.1347459231
6    
Image 7/11, Energy =  -169.0132790781 (+24.815 kcal/mol)
C       -0.2144251493   -1.1484473483   -1.0060231228
C       -0.7205956048   -0.1058820461   -0.6901104547
H       -1.2627795240    0.7663113590   -0.5175902686
H        0.5193900053   -1.8897500378   -0.9339730426
C        0.4643211408    1.1461958624    1.1278626660
N        1.2140891319    1.2315722076    2.0198342221
6    
Image 8/11, Energy =  -168.9961716121 (+35.550 kcal/mol)
C       -0.2581060604   -1.1068027441   -1.0103779945
C       -0.6116679484    0.0114606658   -0.5313429310
H       -1.3435725867    0.7707494445   -0.5896651495
H        0.5841701225   -1.7128171025   -0.7462560135
C        0.4616114970    0.9047117181    0.9888818497
N        1.1675649760    1.1326980147    1.8887602377
6    
Image 9/11, Energy =  -169.0183367695 (+21.641 kcal/mol)
C       -0.2723799018   -1.0767634868   -1.0049750329
C       -0.5145432477    0.0897972973   -0.3915818355
H       -1.3269092967    0.7714517329   -0.5826432594
H        0.6029921701   -1.6484927606   -0.6822469922
C        0.4101713185    0.7789685051    0.8840617552
N        1.1006689577    1.0850387082    1.7773853626
6    
Image 10/11, Energy =  -169.0437609544 (+5.688 kcal/mol)
C       -0.2721093513   -1.0384613434   -0.9953339881
C       -0.4664498990    0.1336943575   -0.3047184047
H       -1.3026915424    0.8069996864   -0.5503883163
H        0.6404231461   -1.5232274468   -0.5526624607
C        0.3524169885    0.6272448767    0.7650856657
N        1.0484106581    0.9937498643    1.6380174988
