6    
Image 0/11, Energy =  -169.0522692293 (+0.266 kcal/mol)
C       -0.3689809232   -1.4576547332   -1.3858823910
C       -0.1536196575   -0.5941379364   -0.5627748996
H        0.0498937432    0.2058682499    0.1931202386
H       -0.5557149982   -2.2230003307   -2.1042277546
C        0.4068909404    1.6172446315    1.5286738868
N        0.6215308952    2.4516801189    2.3310909145
6    
Image 1/11, Energy =  -169.0526926770 (+0.000 kcal/mol)
C       -0.3429496172   -1.4533228683   -1.3563509017
C       -0.2705859006   -0.5205644435   -0.6063102202
H       -0.1472260331    0.2999017766    0.0952662948
H       -0.3892264158   -2.2775160418   -2.0037804544
C        0.3645142345    1.6463785583    1.5021858977
N        0.7854737320    2.3051230185    2.3689893797
6    
Image 2/11, Energy =  -169.0505107560 (+1.369 kcal/mol)
C       -0.3137026874   -1.4375613867   -1.3165249471
C       -0.3854270351   -0.4471331196   -0.6476053959
H       -0.3422148417    0.4092265843    0.0083653528
H       -0.2195850432   -2.3122549390   -1.8841205362
C        0.3330613456    1.6628458626    1.4736548761
N        0.9278682615    2.1248769977    2.3662306473
6    
Image 3/11, Energy =  -169.0471377921 (+3.486 kcal/mol)
C       -0.2810967717   -1.4046243511   -1.2619744572
C       -0.4947831544   -0.3765217282   -0.6881525770
H       -0.5398234734    0.5116713250   -0.0869413342
H       -0.0496658981   -2.3093230902   -1.7342384175
C        0.3238596776    1.6532686612    1.4448075071
N        1.0415096197    1.9255291821    2.3264992766
6    
Image 4/11, Energy =  -169.0425140230 (+6.387 kcal/mol)
C       -0.2467406597   -1.3531419497   -1.1930349960
C       -0.5962632965   -0.3093341304   -0.7263714438
H       -0.7422047273    0.6030311307   -0.1944605095
H        0.1177662281   -2.2645052109   -1.5548043975
C        0.3384589926    1.6022951180    1.4072446287
N        1.1289834624    1.7216550406    2.2614267166
6    
Image 5/11, Energy =  -169.0365110538 (+10.154 kcal/mol)
C       -0.2145766214   -1.2837071762   -1.1137693208
C       -0.6817662719   -0.2447719807   -0.7545603231
H       -0.9425333135    0.6803471504   -0.3121160880
H        0.2760617699   -2.1760721240   -1.3507505081
C        0.3695007907    1.4979285549    1.3499467720
N        1.1933136459    1.5262755733    2.1812494667
6    
Image 6/11, Energy =  -169.0279666114 (+15.516 kcal/mol)
C       -0.1956234481   -1.2050140914   -1.0393893878
C       -0.7327290793   -0.1779215936   -0.7526909957
H       -1.1252603592    0.7399658476   -0.4285555665
H        0.4154944796   -2.0470022774   -1.1351699119
C        0.4073444973    1.3312377426    1.2624099015
N        1.2307739096    1.3587343693    2.0933959593
6    
Image 7/11, Energy =  -169.0120442170 (+25.507 kcal/mol)
C       -0.2101983531   -1.1421635089   -1.0048144443
C       -0.7111713054   -0.0970132021   -0.6814378543
H       -1.2622685316    0.7736989794   -0.5244186460
H        0.5177852961   -1.8913228064   -0.9333230246
C        0.4407070216    1.1146894916    1.1438997313
N        1.2251458725    1.2421110430    2.0000942369
6    
Image 8/11, Energy =  -168.9962095752 (+35.444 kcal/mol)
C       -0.2521017274   -1.1071225378   -1.0124967807
C       -0.6147172349    0.0007663608   -0.5348186425
H       -1.3285275706    0.7771612328   -0.5801577220
H        0.5733094678   -1.7452322116   -0.7799511606
C        0.4535624527    0.9029231068    1.0129913839
N        1.1684746123    1.1715040456    1.8944329210
6    
Image 9/11, Energy =  -169.0185482941 (+21.426 kcal/mol)
C       -0.2719625407   -1.0757313618   -1.0098519562
C       -0.5069208751    0.0856173936   -0.3812100654
H       -1.3135117928    0.7752545914   -0.5708757088
H        0.5941013435   -1.6770996172   -0.7120044684
C        0.4053041628    0.7756593125    0.8955899561
N        1.0929897024    1.1162996774    1.7783522409
6    
Image 10/11, Energy =  -169.0437609544 (+5.605 kcal/mol)
C       -0.2721093513   -1.0384613434   -0.9953339881
C       -0.4664498990    0.1336943575   -0.3047184047
H       -1.3026915424    0.8069996864   -0.5503883163
H        0.6404231461   -1.5232274468   -0.5526624607
C        0.3524169885    0.6272448767    0.7650856657
N        1.0484106581    0.9937498643    1.6380174988
