6    
Image 0/11, Energy =  -169.0522692293 (+0.124 kcal/mol)
C       -0.3689809232   -1.4576547332   -1.3858823910
C       -0.1536196575   -0.5941379364   -0.5627748996
H        0.0498937432    0.2058682499    0.1931202386
H       -0.5557149982   -2.2230003307   -2.1042277546
C        0.4068909404    1.6172446315    1.5286738868
N        0.6215308952    2.4516801189    2.3310909145
6    
Image 1/11, Energy =  -169.0524665123 (+0.000 kcal/mol)
C       -0.3498779427   -1.4462644606   -1.3681891874
C       -0.2784818299   -0.5280528520   -0.6047953400
H       -0.1332217819    0.2748923048    0.1188196688
H       -0.4001643401   -2.2656979894   -2.0250481799
C        0.4332824211    1.5827308606    1.5394142415
N        0.7284634735    2.3823921360    2.3397987942
6    
Image 2/11, Energy =  -169.0497391790 (+1.711 kcal/mol)
C       -0.3273959682   -1.4324407967   -1.3380123732
C       -0.3977057881   -0.4606294953   -0.6439432916
H       -0.3197856569    0.3657285647    0.0498624755
H       -0.2396985712   -2.2931517872   -1.9284044275
C        0.4517742225    1.5401433962    1.5216159211
N        0.8328117617    2.2803501182    2.3388816948
6    
Image 3/11, Energy =  -169.0458556549 (+4.148 kcal/mol)
C       -0.2975085465   -1.4079280582   -1.2874984882
C       -0.5089106272   -0.3962807511   -0.6866735642
H       -0.5175046511    0.4616028765   -0.0388331659
H       -0.0764902810   -2.2940746456   -1.7997712348
C        0.4614203804    1.4988820953    1.4811244853
N        0.9389937247    2.1377984825    2.3316519675
6    
Image 4/11, Energy =  -169.0411803195 (+7.082 kcal/mol)
C       -0.2609493603   -1.3643630204   -1.2212415402
C       -0.6094522518   -0.3398931368   -0.7200952285
H       -0.7268435583    0.5534445819   -0.1473634252
H        0.0872277027   -2.2608750723   -1.6381341733
C        0.4683940432    1.4595018182    1.4167849493
N        1.0416234234    1.9521848289    2.3100494177
6    
Image 5/11, Energy =  -169.0360291486 (+10.315 kcal/mol)
C       -0.2228902369   -1.3042665368   -1.1373003191
C       -0.6898374564   -0.2808911885   -0.7415185087
H       -0.9247531515    0.6363367288   -0.2671518677
H        0.2409664374   -2.1906174623   -1.4454148206
C        0.4717736121    1.4237055769    1.3332158287
N        1.1247407943    1.7157328815    2.2581696868
6    
Image 6/11, Energy =  -169.0295387705 (+14.387 kcal/mol)
C       -0.1934727694   -1.2295022243   -1.0432525011
C       -0.7404096922   -0.2110167638   -0.7411511641
H       -1.1013478026    0.7104359915   -0.3886035638
H        0.3844271960   -2.0805912067   -1.2235371815
C        0.4751300618    1.3609559513    1.2325443642
N        1.1756730054    1.4497182509    2.1640000461
6    
Image 7/11, Energy =  -169.0169844954 (+22.265 kcal/mol)
C       -0.1926890185   -1.1555026590   -0.9791061187
C       -0.7272095515   -0.1224374307   -0.6852301831
H       -1.2398775478    0.7637790167   -0.4924151574
H        0.5015120688   -1.9351130480   -0.9947668450
C        0.4734779907    1.2232373848    1.1119858796
N        1.1847860579    1.2260367341    2.0395324253
6    
Image 8/11, Energy =  -168.9966397873 (+35.032 kcal/mol)
C       -0.2309191180   -1.1087154220   -0.9740687149
C       -0.6259753940   -0.0163633114   -0.5522275107
H       -1.3127023084    0.7777203547   -0.5526223656
H        0.5652231463   -1.7947301779   -0.8283652745
C        0.4557035948    1.0158157386    0.9899500818
N        1.1486700793    1.1262728150    1.9173337839
6    
Image 9/11, Energy =  -169.0142074117 (+24.008 kcal/mol)
C       -0.2651780105   -1.0816686733   -0.9898883722
C       -0.5084640214    0.0873215392   -0.3882702695
H       -1.3111276791    0.7793707042   -0.5583854595
H        0.5952094611   -1.7098714603   -0.7402271910
C        0.4066360986    0.8309179294    0.8805788170
N        1.0829241511    1.0939299572    1.7961924741
6    
Image 10/11, Energy =  -169.0437609544 (+5.463 kcal/mol)
C       -0.2721093513   -1.0384613434   -0.9953339881
C       -0.4664498990    0.1336943575   -0.3047184047
H       -1.3026915424    0.8069996864   -0.5503883163
H        0.6404231461   -1.5232274468   -0.5526624607
C        0.3524169885    0.6272448767    0.7650856657
N        1.0484106581    0.9937498643    1.6380174988
