6    
Image 0/11, Energy =  -169.0522692293 (+0.156 kcal/mol)
C       -0.3689809232   -1.4576547332   -1.3858823910
C       -0.1536196575   -0.5941379364   -0.5627748996
H        0.0498937432    0.2058682499    0.1931202386
H       -0.5557149982   -2.2230003307   -2.1042277546
C        0.4068909404    1.6172446315    1.5286738868
N        0.6215308952    2.4516801189    2.3310909145
6    
Image 1/11, Energy =  -169.0525184167 (+0.000 kcal/mol)
C       -0.3496782707   -1.4462831008   -1.3692462455
C       -0.2793035757   -0.5282183639   -0.6026743664
H       -0.1330889324    0.2745999913    0.1170975733
H       -0.3993178014   -2.2660018281   -2.0244067913
C        0.4307598107    1.5865370906    1.5388788374
N        0.7306287694    2.3793662104    2.3403509896
6    
Image 2/11, Energy =  -169.0498369380 (+1.683 kcal/mol)
C       -0.3262707366   -1.4320503193   -1.3391324993
C       -0.3992605457   -0.4613842018   -0.6426408900
H       -0.3200152015    0.3668504019    0.0467315445
H       -0.2386578201   -2.2946798981   -1.9266179830
C        0.4461833395    1.5456372465    1.5195537398
N        0.8380209641    2.2756267706    2.3421060869
6    
Image 3/11, Energy =  -169.0460276787 (+4.073 kcal/mol)
C       -0.2973091142   -1.4079965116   -1.2899164591
C       -0.5097980478   -0.3961618244   -0.6853506249
H       -0.5182429359    0.4618735471   -0.0409346523
H       -0.0749109867   -2.2956667355   -1.7974231419
C        0.4555735305    1.5060764025    1.4787706264
N        0.9446875534    2.1318751214    2.3348542515
6    
Image 4/11, Energy =  -169.0413677520 (+6.997 kcal/mol)
C       -0.2628540411   -1.3649510890   -1.2231162197
C       -0.6085933824   -0.3395164043   -0.7192430963
H       -0.7258876884    0.5535423688   -0.1491276406
H        0.0887440778   -2.2618337603   -1.6358634981
C        0.4634511936    1.4681893658    1.4171849609
N        1.0451398393    1.9445695185    2.3101654936
6    
Image 5/11, Energy =  -169.0361675507 (+10.260 kcal/mol)
C       -0.2254723160   -1.3064629722   -1.1397173436
C       -0.6888910392   -0.2796675680   -0.7409651288
H       -0.9228962693    0.6351390712   -0.2683337498
H        0.2421286419   -2.1894820981   -1.4426830569
C        0.4682017056    1.4303930941    1.3343955266
N        1.1269292760    1.7100804725    2.2573037520
6    
Image 6/11, Energy =  -169.0296009804 (+14.381 kcal/mol)
C       -0.1961254467   -1.2297717050   -1.0457748282
C       -0.7390287892   -0.2109490110   -0.7425884054
H       -1.0991525379    0.7084532493   -0.3885047972
H        0.3844116249   -2.0787685986   -1.2200180425
C        0.4727054265    1.3644637310    1.2337659015
N        1.1771897215    1.4465723332    2.1631201718
6    
Image 7/11, Energy =  -169.0168177811 (+22.402 kcal/mol)
C       -0.1932543164   -1.1570828499   -0.9823531362
C       -0.7265065424   -0.1206727059   -0.6868922744
H       -1.2383333634    0.7610879902   -0.4912661981
H        0.4995726011   -1.9335708099   -0.9932089959
C        0.4727714350    1.2210560039    1.1138838662
N        1.1857501856    1.2291823695    2.0398367388
6    
Image 8/11, Energy =  -168.9965747296 (+35.105 kcal/mol)
C       -0.2316450346   -1.1083778469   -0.9756040778
C       -0.6253951762   -0.0145584961   -0.5527862512
H       -1.3148411372    0.7769899789   -0.5531712277
H        0.5657452967   -1.7907829550   -0.8246490901
C        0.4561832572    1.0077474288    0.9891895577
N        1.1499527942    1.1289818873    1.9170210890
6    
Image 9/11, Energy =  -169.0136711387 (+24.377 kcal/mol)
C       -0.2643584816   -1.0820268739   -0.9901260837
C       -0.5104921288    0.0849455283   -0.3920069737
H       -1.3110122385    0.7798928667   -0.5583913034
H        0.5941614512   -1.7090089860   -0.7397042730
C        0.4075430136    0.8299115352    0.8826517878
N        1.0841583840    1.0962859264    1.7975768446
6    
Image 10/11, Energy =  -169.0437609544 (+5.495 kcal/mol)
C       -0.2721093513   -1.0384613434   -0.9953339881
C       -0.4664498990    0.1336943575   -0.3047184047
H       -1.3026915424    0.8069996864   -0.5503883163
H        0.6404231461   -1.5232274468   -0.5526624607
C        0.3524169885    0.6272448767    0.7650856657
N        1.0484106581    0.9937498643    1.6380174988
