6    
Image 0/11, Energy =  -169.0522692293 (+0.342 kcal/mol)
C       -0.3689809232   -1.4576547332   -1.3858823910
C       -0.1536196575   -0.5941379364   -0.5627748996
H        0.0498937432    0.2058682499    0.1931202386
H       -0.5557149982   -2.2230003307   -2.1042277546
C        0.4068909404    1.6172446315    1.5286738868
N        0.6215308952    2.4516801189    2.3310909145
6    
Image 1/11, Energy =  -169.0528149708 (+0.000 kcal/mol)
C       -0.3468087708   -1.4530166755   -1.3627827750
C       -0.2739895119   -0.5271206644   -0.6062576835
H       -0.1441677322    0.2869455922    0.1023328011
H       -0.3912151544   -2.2747844903   -2.0143915203
C        0.3833075214    1.6357745735    1.5145692357
N        0.7728736475    2.3322016643    2.3665299382
6    
Image 2/11, Energy =  -169.0507389007 (+1.303 kcal/mol)
C       -0.3209278720   -1.4403025299   -1.3301683911
C       -0.3917171977   -0.4588975720   -0.6467739405
H       -0.3355939223    0.3871692337    0.0208127713
H       -0.2245096237   -2.3092979308   -1.9052789704
C        0.3650092624    1.6414805661    1.4887226333
N        0.9077393528    2.1798482327    2.3726858948
6    
Image 3/11, Energy =  -169.0474851030 (+3.345 kcal/mol)
C       -0.2915552001   -1.4119298165   -1.2815038075
C       -0.5004049270   -0.3937104561   -0.6866121695
H       -0.5278049836    0.4839221595   -0.0698928137
H       -0.0595524113   -2.3093150240   -1.7654447165
C        0.3605209231    1.6307602478    1.4548715618
N        1.0187965983    2.0002728888    2.3485819439
6    
Image 4/11, Energy =  -169.0431099230 (+6.090 kcal/mol)
C       -0.2591729742   -1.3666045774   -1.2151712748
C       -0.5978599424   -0.3308012511   -0.7235855590
H       -0.7221942073    0.5735697877   -0.1716861028
H        0.1013313906   -2.2712870269   -1.5965469332
C        0.3723550903    1.5923756462    1.4095521119
N        1.1055406424    1.8027474205    2.2974377571
6    
Image 5/11, Energy =  -169.0374750998 (+9.626 kcal/mol)
C       -0.2268488682   -1.3028285965   -1.1362465428
C       -0.6805476917   -0.2675440779   -0.7506569625
H       -0.9155322183    0.6539315133   -0.2840072480
H        0.2553304022   -2.1924828308   -1.3995133391
C        0.3988987939    1.5102875847    1.3462098979
N        1.1686995818    1.5986364056    2.2242141941
6    
Image 6/11, Energy =  -169.0293197444 (+14.743 kcal/mol)
C       -0.2047046803   -1.2222939776   -1.0550956641
C       -0.7355504836   -0.1965096401   -0.7538768612
H       -1.1043200379    0.7230527674   -0.4051129151
H        0.4011108313   -2.0651292682   -1.1713742998
C        0.4337117388    1.3641453751    1.2549152693
N        1.2097526315    1.3967347409    2.1305444705
6    
Image 7/11, Energy =  -169.0129545427 (+25.013 kcal/mol)
C       -0.2152082531   -1.1485235003   -1.0067887443
C       -0.7179662406   -0.1035719476   -0.6875373505
H       -1.2633323565    0.7675555885   -0.5184259055
H        0.5203071970   -1.8889054908   -0.9322056660
C        0.4609649037    1.1429395751    1.1284041770
N        1.2152347494    1.2305057719    2.0165534887
6    
Image 8/11, Energy =  -168.9961660972 (+35.548 kcal/mol)
C       -0.2570361899   -1.1074989507   -1.0109127400
C       -0.6115891792    0.0087413418   -0.5317391692
H       -1.3391168749    0.7727951432   -0.5855133728
H        0.5824052841   -1.7218366763   -0.7546706552
C        0.4584657489    0.9083968545    0.9929448308
N        1.1668712111    1.1394022840    1.8898911055
6    
Image 9/11, Energy =  -169.0193023969 (+21.029 kcal/mol)
C       -0.2736800021   -1.0762116961   -1.0073512917
C       -0.5086204721    0.0909179340   -0.3847261477
H       -1.3220004233    0.7715384311   -0.5785569266
H        0.6009527733   -1.6569153433   -0.6895338895
C        0.4068837695    0.7788728883    0.8838178320
N        1.0964643546    1.0917977822    1.7763504214
6    
Image 10/11, Energy =  -169.0437609544 (+5.681 kcal/mol)
C       -0.2721093513   -1.0384613434   -0.9953339881
C       -0.4664498990    0.1336943575   -0.3047184047
H       -1.3026915424    0.8069996864   -0.5503883163
H        0.6404231461   -1.5232274468   -0.5526624607
C        0.3524169885    0.6272448767    0.7650856657
N        1.0484106581    0.9937498643    1.6380174988
