6    
Image 0/11, Energy =  -169.0522692293 (+0.315 kcal/mol)
C       -0.3689809232   -1.4576547332   -1.3858823910
C       -0.1536196575   -0.5941379364   -0.5627748996
H        0.0498937432    0.2058682499    0.1931202386
H       -0.5557149982   -2.2230003307   -2.1042277546
C        0.4068909404    1.6172446315    1.5286738868
N        0.6215308952    2.4516801189    2.3310909145
6    
Image 1/11, Energy =  -169.0527705626 (+0.000 kcal/mol)
C       -0.3451037688   -1.4542074443   -1.3590304501
C       -0.2712044133   -0.5238671104   -0.6060624408
H       -0.1457553630    0.2942862515    0.0985033182
H       -0.3904810879   -2.2764868922   -2.0096995877
C        0.3722059645    1.6433138296    1.5072634650
N        0.7803386683    2.3169613657    2.3690256913
6    
Image 2/11, Energy =  -169.0506464886 (+1.333 kcal/mol)
C       -0.3169201433   -1.4392739562   -1.3209951093
C       -0.3859558133   -0.4526286612   -0.6479126576
H       -0.3395754783    0.4008835658    0.0135954458
H       -0.2222542740   -2.3120392653   -1.8936651463
C        0.3436270798    1.6583608043    1.4787809561
N        0.9210786286    2.1446975122    2.3701965085
6    
Image 3/11, Energy =  -169.0473630279 (+3.393 kcal/mol)
C       -0.2854248192   -1.4093462981   -1.2682684539
C       -0.4942909974   -0.3837644250   -0.6880472643
H       -0.5343904397    0.4999479258   -0.0791116769
H       -0.0551787510   -2.3101043682   -1.7492382169
C        0.3364258201    1.6490681677    1.4483788200
N        1.0328591868    1.9541989969    2.3362867902
6    
Image 4/11, Energy =  -169.0428556955 (+6.222 kcal/mol)
C       -0.2517023436   -1.3600993147   -1.2020086421
C       -0.5946895037   -0.3186214321   -0.7241464812
H       -0.7325188634    0.5903779283   -0.1845571174
H        0.1091410982   -2.2682573948   -1.5741341009
C        0.3505348734    1.6028189825    1.4081972756
N        1.1192347387    1.7537812294    2.2766490648
6    
Image 5/11, Energy =  -169.0369269851 (+9.942 kcal/mol)
C       -0.2200940895   -1.2916408957   -1.1237916642
C       -0.6806934605   -0.2537222090   -0.7521340418
H       -0.9322231726    0.6703098336   -0.3020489672
H        0.2679292015   -2.1827993885   -1.3691604727
C        0.3808204403    1.5056889052    1.3485254092
N        1.1842610804    1.5521637523    2.1986097359
6    
Image 6/11, Energy =  -169.0283060112 (+15.352 kcal/mol)
C       -0.2006652278   -1.2112994699   -1.0462832087
C       -0.7322642805   -0.1836466827   -0.7513811668
H       -1.1194239813    0.7341769742   -0.4211241474
H        0.4116319320   -2.0517130317   -1.1453006682
C        0.4177082635    1.3431524587    1.2581730007
N        1.2230132940    1.3693297487    2.1059161895
6    
Image 7/11, Energy =  -169.0121298344 (+25.502 kcal/mol)
C       -0.2122485455   -1.1445190200   -1.0057855573
C       -0.7110071742   -0.0990016132   -0.6805049519
H       -1.2607916222    0.7718351862   -0.5203127163
H        0.5182207452   -1.8913033282   -0.9346142171
C        0.4460295064    1.1242452426    1.1370512055
N        1.2197970903    1.2387435293    2.0041662363
6    
Image 8/11, Energy =  -168.9962007466 (+35.498 kcal/mol)
C       -0.2522643632   -1.1072913064   -1.0119859924
C       -0.6142345227    0.0012120557   -0.5347893588
H       -1.3287566466    0.7767705672   -0.5793937760
H        0.5739654238   -1.7440716460   -0.7785566764
C        0.4535001114    0.9054705316    1.0106317050
N        1.1677899974    1.1679097943    1.8940940976
6    
Image 9/11, Energy =  -169.0189777770 (+21.205 kcal/mol)
C       -0.2717455675   -1.0753349754   -1.0088713435
C       -0.5057524378    0.0867922890   -0.3802273549
H       -1.3134498781    0.7752573875   -0.5700186840
H        0.5945607138   -1.6764595132   -0.7110450156
C        0.4046789775    0.7756040113    0.8929705592
N        1.0917081922    1.1141407967    1.7771918369
6    
Image 10/11, Energy =  -169.0437609544 (+5.654 kcal/mol)
C       -0.2721093513   -1.0384613434   -0.9953339881
C       -0.4664498990    0.1336943575   -0.3047184047
H       -1.3026915424    0.8069996864   -0.5503883163
H        0.6404231461   -1.5232274468   -0.5526624607
C        0.3524169885    0.6272448767    0.7650856657
N        1.0484106581    0.9937498643    1.6380174988
