6    
Image 0/11, Energy =  -169.0522692293 (+0.292 kcal/mol)
C       -0.3689809232   -1.4576547332   -1.3858823910
C       -0.1536196575   -0.5941379364   -0.5627748996
H        0.0498937432    0.2058682499    0.1931202386
H       -0.5557149982   -2.2230003307   -2.1042277546
C        0.4068909404    1.6172446315    1.5286738868
N        0.6215308952    2.4516801189    2.3310909145
6    
Image 1/11, Energy =  -169.0527348741 (+0.000 kcal/mol)
C       -0.3442099188   -1.4537779226   -1.3573638227
C       -0.2706869944   -0.5226922122   -0.6064287352
H       -0.1462789483    0.2969687578    0.0967818190
H       -0.3900150925   -2.2769172436   -2.0070980974
C        0.3684859315    1.6452557007    1.5049514814
N        0.7827050222    2.3111629197    2.3691573510
6    
Image 2/11, Energy =  -169.0505817385 (+1.351 kcal/mol)
C       -0.3152553744   -1.4390158126   -1.3181058079
C       -0.3852047451   -0.4494070228   -0.6476954953
H       -0.3407168003    0.4054611553    0.0106700102
H       -0.2209819700   -2.3120654200   -1.8887495863
C        0.3371261595    1.6622348761    1.4758417479
N        0.9250327299    2.1327922234    2.3680391285
6    
Image 3/11, Energy =  -169.0472608584 (+3.435 kcal/mol)
C       -0.2831690784   -1.4074832134   -1.2639912432
C       -0.4937884873   -0.3797670719   -0.6883291669
H       -0.5368036179    0.5059543937   -0.0832360048
H       -0.0526732111   -2.3095053703   -1.7418209566
C        0.3286226268    1.6529097406    1.4463707743
N        1.0378117676    1.9378915201    2.3310065952
6    
Image 4/11, Energy =  -169.0426857871 (+6.306 kcal/mol)
C       -0.2488407241   -1.3565108392   -1.1965550677
C       -0.5950687535   -0.3134233914   -0.7256304569
H       -0.7376040258    0.5969258296   -0.1897953503
H        0.1134199767   -2.2661472986   -1.5638090156
C        0.3431929856    1.6039431855    1.4072867198
N        1.1249005408    1.7352125125    2.2685031693
6    
Image 5/11, Energy =  -169.0366898477 (+10.068 kcal/mol)
C       -0.2165729545   -1.2867168906   -1.1180137788
C       -0.6811947079   -0.2481905101   -0.7536743875
H       -0.9385065712    0.6762905530   -0.3081003861
H        0.2724625961   -2.1790065682   -1.3576095540
C        0.3743734074    1.5022888117    1.3492717724
N        1.1894382299    1.5353346021    2.1881263329
6    
Image 6/11, Energy =  -169.0280603041 (+15.484 kcal/mol)
C       -0.1972114756   -1.2071775692   -1.0419492860
C       -0.7319162524   -0.1799456702   -0.7513090045
H       -1.1230361497    0.7378639487   -0.4251902779
H        0.4137412479   -2.0490892906   -1.1393542605
C        0.4107603007    1.3355100101    1.2595330380
N        1.2276623290    1.3628385685    2.0982697898
6    
Image 7/11, Energy =  -169.0120638692 (+25.521 kcal/mol)
C       -0.2104106153   -1.1429879472   -1.0045780366
C       -0.7106260838   -0.0981164201   -0.6799065637
H       -1.2608466625    0.7731932326   -0.5220796606
H        0.5172703660   -1.8928779930   -0.9365218936
C        0.4422404775    1.1175852611    1.1413983291
N        1.2223725181    1.2432038631    2.0016878246
6    
Image 8/11, Energy =  -168.9962095752 (+35.470 kcal/mol)
C       -0.2521017274   -1.1071225378   -1.0124967807
C       -0.6147172349    0.0007663608   -0.5348186425
H       -1.3285275706    0.7771612328   -0.5801577220
H        0.5733094678   -1.7452322116   -0.7799511606
C        0.4535624527    0.9029231068    1.0129913839
N        1.1684746123    1.1715040456    1.8944329210
6    
Image 9/11, Energy =  -169.0185482941 (+21.452 kcal/mol)
C       -0.2719625407   -1.0757313618   -1.0098519562
C       -0.5069208751    0.0856173936   -0.3812100654
H       -1.3135117928    0.7752545914   -0.5708757088
H        0.5941013435   -1.6770996172   -0.7120044684
C        0.4053041628    0.7756593125    0.8955899561
N        1.0929897024    1.1162996774    1.7783522409
6    
Image 10/11, Energy =  -169.0437609544 (+5.631 kcal/mol)
C       -0.2721093513   -1.0384613434   -0.9953339881
C       -0.4664498990    0.1336943575   -0.3047184047
H       -1.3026915424    0.8069996864   -0.5503883163
H        0.6404231461   -1.5232274468   -0.5526624607
C        0.3524169885    0.6272448767    0.7650856657
N        1.0484106581    0.9937498643    1.6380174988
