6    
Image 0/11, Energy =  -169.0522692293 (+0.383 kcal/mol)
C       -0.3689809232   -1.4576547332   -1.3858823910
C       -0.1536196575   -0.5941379364   -0.5627748996
H        0.0498937432    0.2058682499    0.1931202386
H       -0.5557149982   -2.2230003307   -2.1042277546
C        0.4068909404    1.6172446315    1.5286738868
N        0.6215308952    2.4516801189    2.3310909145
6    
Image 1/11, Energy =  -169.0528791141 (+0.000 kcal/mol)
C       -0.3435932930   -1.4589832171   -1.3586728009
C       -0.2649985769   -0.5247857827   -0.6112348124
H       -0.1463951844    0.2976941150    0.0870000161
H       -0.3950984191   -2.2836833121   -2.0063920065
C        0.3488897218    1.6668990242    1.5102457319
N        0.8011957515    2.3028591724    2.3790538682
6    
Image 2/11, Energy =  -169.0507392421 (+1.343 kcal/mol)
C       -0.3130520167   -1.4427410404   -1.3178360261
C       -0.3755567852   -0.4482180425   -0.6528076762
H       -0.3398833817    0.4129248514   -0.0019757898
H       -0.2280778124   -2.3222365953   -1.8827648025
C        0.3038206118    1.6959320726    1.4867448980
N        0.9527493838    2.1043387532    2.3686393945
6    
Image 3/11, Energy =  -169.0473856639 (+3.447 kcal/mol)
C       -0.2787841662   -1.4068416135   -1.2600900591
C       -0.4840493819   -0.3722411332   -0.6933200343
H       -0.5398055240    0.5213347349   -0.0997271126
H       -0.0552392949   -2.3195128332   -1.7251840889
C        0.2857874846    1.6958507058    1.4662415548
N        1.0720908821    1.8814101376    2.3120797391
6    
Image 4/11, Energy =  -169.0429605268 (+6.224 kcal/mol)
C       -0.2420500507   -1.3536777187   -1.1890456494
C       -0.5873654958   -0.3022864939   -0.7344127364
H       -0.7465590047    0.6151779453   -0.2135926678
H        0.1151341165   -2.2745923446   -1.5395671426
C        0.2978550938    1.6548309951    1.4439114877
N        1.1629853407    1.6605476146    2.2327067085
6    
Image 5/11, Energy =  -169.0373895195 (+9.720 kcal/mol)
C       -0.2074779037   -1.2817666574   -1.1075066306
C       -0.6806611725   -0.2371063252   -0.7711646387
H       -0.9561322260    0.6923632609   -0.3437744510
H        0.2782705923   -2.1837637278   -1.3270431851
C        0.3332058979    1.5522734623    1.4025821995
N        1.2327948118    1.4579999843    2.1469067066
6    
Image 6/11, Energy =  -169.0296821125 (+14.556 kcal/mol)
C       -0.1857259416   -1.1970601944   -1.0247015105
C       -0.7460978808   -0.1713761560   -0.7790501910
H       -1.1443942194    0.7512481127   -0.4668067633
H        0.4232970950   -2.0452540432   -1.1005563566
C        0.3825274569    1.3753762695    1.3061881094
N        1.2703934899    1.2870660081    2.0649267133
6    
Image 7/11, Energy =  -169.0138973788 (+24.461 kcal/mol)
C       -0.2009681486   -1.1311612438   -0.9891377563
C       -0.7298637989   -0.0900099905   -0.7077398799
H       -1.2775035792    0.7868697298   -0.5596208418
H        0.5260450441   -1.8794269964   -0.8909882977
C        0.4236781991    1.1300944522    1.1658635168
N        1.2586122834    1.1836340451    1.9816232607
6    
Image 8/11, Energy =  -168.9961774026 (+35.581 kcal/mol)
C       -0.2504095673   -1.1026249036   -1.0116495101
C       -0.6169730424    0.0073776895   -0.5403115348
H       -1.3248940210    0.7883299439   -0.6013582734
H        0.5686216537   -1.7399162210   -0.7533963977
C        0.4404992923    0.9005035167    1.0207462442
N        1.1831556848    1.1463299706    1.8859694738
6    
Image 9/11, Energy =  -169.0167554039 (+22.668 kcal/mol)
C       -0.2705582933   -1.0735670354   -1.0106239303
C       -0.5088435310    0.0878743144   -0.3873233787
H       -1.3085968948    0.7818393034   -0.5896825363
H        0.5834265607   -1.6879044802   -0.7048343761
C        0.4009580028    0.7806827530    0.9089335525
N        1.1036141557    1.1110751407    1.7835306699
6    
Image 10/11, Energy =  -169.0437609544 (+5.722 kcal/mol)
C       -0.2721093513   -1.0384613434   -0.9953339881
C       -0.4664498990    0.1336943575   -0.3047184047
H       -1.3026915424    0.8069996864   -0.5503883163
H        0.6404231461   -1.5232274468   -0.5526624607
C        0.3524169885    0.6272448767    0.7650856657
N        1.0484106581    0.9937498643    1.6380174988
