6    
Image 0/11, Energy =  -169.0522692293 (+0.236 kcal/mol)
C       -0.3689809232   -1.4576547332   -1.3858823910
C       -0.1536196575   -0.5941379364   -0.5627748996
H        0.0498937432    0.2058682499    0.1931202386
H       -0.5557149982   -2.2230003307   -2.1042277546
C        0.4068909404    1.6172446315    1.5286738868
N        0.6215308952    2.4516801189    2.3310909145
6    
Image 1/11, Energy =  -169.0526454381 (+0.000 kcal/mol)
C       -0.3422948383   -1.4526302929   -1.3549566666
C       -0.2703154900   -0.5185873847   -0.6069310514
H       -0.1485634912    0.3026780967    0.0944724366
H       -0.3880839182   -2.2781072859   -2.0009341441
C        0.3616579833    1.6466578895    1.5000668960
N        0.7875997543    2.2999889769    2.3682825254
6    
Image 2/11, Energy =  -169.0503766757 (+1.424 kcal/mol)
C       -0.3124175669   -1.4351314949   -1.3141881461
C       -0.3859798596   -0.4422937749   -0.6490096097
H       -0.3461418636    0.4152296779    0.0057891196
H       -0.2159286673   -2.3128819476   -1.8763878603
C        0.3285760626    1.6610371259    1.4708403619
N        0.9318918946    2.1140404128    2.3629561316
6    
Image 3/11, Energy =  -169.0468987740 (+3.606 kcal/mol)
C       -0.2789274384   -1.4003360255   -1.2586737342
C       -0.4969423344   -0.3704498724   -0.6895857371
H       -0.5463325243    0.5199019936   -0.0919977337
H       -0.0435364214   -2.3084033762   -1.7222513614
C        0.3190727885    1.6495964553    1.4428208032
N        1.0466659298    1.9096908240    2.3196877610
6    
Image 4/11, Energy =  -169.0422190069 (+6.543 kcal/mol)
C       -0.2442202826   -1.3482332241   -1.1885232819
C       -0.5987088550   -0.3033906207   -0.7278170122
H       -0.7493097114    0.6111761596   -0.2011682922
H        0.1247082443   -2.2612759797   -1.5416029213
C        0.3326832396    1.5962973329    1.4070280205
N        1.1348473649    1.7054263301    2.2520834854
6    
Image 5/11, Energy =  -169.0362622420 (+10.281 kcal/mol)
C       -0.2128428551   -1.2801561131   -1.1096922327
C       -0.6832330650   -0.2407199683   -0.7557981131
H       -0.9479374128    0.6854308020   -0.3178278774
H        0.2815429552   -2.1719604438   -1.3415440527
C        0.3640792726    1.4907277374    1.3521319470
N        1.1983911051    1.5166779835    2.1727303276
6    
Image 6/11, Energy =  -169.0278618639 (+15.552 kcal/mol)
C       -0.1956197549   -1.2032503167   -1.0384716700
C       -0.7334451293   -0.1756013511   -0.7550308487
H       -1.1287111133    0.7420782206   -0.4333385325
H        0.4184112162   -2.0438818617   -1.1285262786
C        0.4036257104    1.3270549089    1.2663589016
N        1.2357390708    1.3536003971    2.0890084271
6    
Image 7/11, Energy =  -169.0120238848 (+25.490 kcal/mol)
C       -0.2107238128   -1.1415535300   -1.0053963325
C       -0.7115812815   -0.0956759403   -0.6837810357
H       -1.2643602765    0.7741282997   -0.5267008031
H        0.5192885330   -1.8884695514   -0.9277717093
C        0.4394608673    1.1138611721    1.1454168945
N        1.2279159705    1.2377095467    1.9982329851
6    
Image 8/11, Energy =  -168.9962095752 (+35.414 kcal/mol)
C       -0.2521017274   -1.1071225378   -1.0124967807
C       -0.6147172349    0.0007663608   -0.5348186425
H       -1.3285275706    0.7771612328   -0.5801577220
H        0.5733094678   -1.7452322116   -0.7799511606
C        0.4535624527    0.9029231068    1.0129913839
N        1.1684746123    1.1715040456    1.8944329210
6    
Image 9/11, Energy =  -169.0185482941 (+21.396 kcal/mol)
C       -0.2719625407   -1.0757313618   -1.0098519562
C       -0.5069208751    0.0856173936   -0.3812100654
H       -1.3135117928    0.7752545914   -0.5708757088
H        0.5941013435   -1.6770996172   -0.7120044684
C        0.4053041628    0.7756593125    0.8955899561
N        1.0929897024    1.1162996774    1.7783522409
6    
Image 10/11, Energy =  -169.0437609544 (+5.575 kcal/mol)
C       -0.2721093513   -1.0384613434   -0.9953339881
C       -0.4664498990    0.1336943575   -0.3047184047
H       -1.3026915424    0.8069996864   -0.5503883163
H        0.6404231461   -1.5232274468   -0.5526624607
C        0.3524169885    0.6272448767    0.7650856657
N        1.0484106581    0.9937498643    1.6380174988
