6    
Image 0/11, Energy =  -169.0522692293 (+0.115 kcal/mol)
C       -0.3689809232   -1.4576547332   -1.3858823910
C       -0.1536196575   -0.5941379364   -0.5627748996
H        0.0498937432    0.2058682499    0.1931202386
H       -0.5557149982   -2.2230003307   -2.1042277546
C        0.4068909404    1.6172446315    1.5286738868
N        0.6215308952    2.4516801189    2.3310909145
6    
Image 1/11, Energy =  -169.0524519444 (+0.000 kcal/mol)
C       -0.3503757811   -1.4493445640   -1.3688320592
C       -0.2768045691   -0.5251476715   -0.6064100174
H       -0.1339520859    0.2751443744    0.1215848945
H       -0.4012270806   -2.2652366176   -2.0257444907
C        0.4366574056    1.5800555603    1.5413765596
N        0.7257021110    2.3845289176    2.3380251105
6    
Image 2/11, Energy =  -169.0496357944 (+1.767 kcal/mol)
C       -0.3291238672   -1.4341841333   -1.3368399728
C       -0.3952167456   -0.4581060382   -0.6459657446
H       -0.3203456811    0.3642043088    0.0545124140
H       -0.2405162864   -2.2916501677   -1.9305616697
C        0.4573728913    1.5334213902    1.5221450294
N        0.8278296888    2.2863146402    2.3367099430
6    
Image 3/11, Energy =  -169.0457028868 (+4.235 kcal/mol)
C       -0.2973249979   -1.4105418428   -1.2852170195
C       -0.5082105344   -0.3940885536   -0.6880646818
H       -0.5164732876    0.4612073556   -0.0366127853
H       -0.0783104444   -2.2916482578   -1.8019367786
C        0.4659740352    1.4901312437    1.4814288007
N        0.9343452284    2.1449400542    2.3304024643
6    
Image 4/11, Energy =  -169.0409807811 (+7.198 kcal/mol)
C       -0.2574991469   -1.3653547952   -1.2190926050
C       -0.6119026561   -0.3396954239   -0.7219997325
H       -0.7278129296    0.5536204392   -0.1449344089
H        0.0853417520   -2.2592687838   -1.6405153035
C        0.4749299260    1.4512328823    1.4182576218
N        1.0369430533    1.9594656810    2.3082844279
6    
Image 5/11, Energy =  -169.0358557307 (+10.414 kcal/mol)
C       -0.2169972819   -1.3055170890   -1.1354121923
C       -0.6943324050   -0.2787856337   -0.7418341262
H       -0.9266746063    0.6387876240   -0.2649837894
H        0.2398318750   -2.1929050148   -1.4489456654
C        0.4759178819    1.4167357600    1.3323371021
N        1.1222545354    1.7216843532    2.2588386708
6    
Image 6/11, Energy =  -169.0294723812 (+14.420 kcal/mol)
C       -0.1902025804   -1.2285730088   -1.0398358434
C       -0.7431197980   -0.2117864202   -0.7403529223
H       -1.1046225234    0.7157707427   -0.3877566313
H        0.3861353115   -2.0852246660   -1.2280377612
C        0.4770586755    1.3569583017    1.2302511762
N        1.1747509137    1.4528550496    2.1657319817
6    
Image 7/11, Energy =  -169.0170562167 (+22.211 kcal/mol)
C       -0.1924618193   -1.1534215739   -0.9757453241
C       -0.7283870689   -0.1249112299   -0.6834729775
H       -1.2432371376    0.7700058297   -0.4934018454
H        0.5060333706   -1.9386278610   -0.9957651630
C        0.4740627256    1.2252873514    1.1093842320
N        1.1839899292    1.2216674816    2.0390010788
6    
Image 8/11, Energy =  -168.9967399415 (+34.960 kcal/mol)
C       -0.2291214905   -1.1125551131   -0.9746752225
C       -0.6285979839   -0.0149386249   -0.5506969676
H       -1.3104274963    0.7789868953   -0.5516107242
H        0.5653274151   -1.8006565324   -0.8325838147
C        0.4535048444    1.0246843844    0.9888722299
N        1.1493147113    1.1244789879    1.9206944993
6    
Image 9/11, Energy =  -169.0148278579 (+23.609 kcal/mol)
C       -0.2674190945   -1.0793191598   -0.9903387941
C       -0.5041821817    0.0878643679   -0.3841071151
H       -1.3119232410    0.7778794486   -0.5580153068
H        0.5961527414   -1.7110825724   -0.7410991874
C        0.4055296651    0.8320703480    0.8782190994
N        1.0818421108    1.0925875640    1.7953413031
6    
Image 10/11, Energy =  -169.0437609544 (+5.454 kcal/mol)
C       -0.2721093513   -1.0384613434   -0.9953339881
C       -0.4664498990    0.1336943575   -0.3047184047
H       -1.3026915424    0.8069996864   -0.5503883163
H        0.6404231461   -1.5232274468   -0.5526624607
C        0.3524169885    0.6272448767    0.7650856657
N        1.0484106581    0.9937498643    1.6380174988
