6    
Image 0/11, Energy =  -169.0522692293 (+0.383 kcal/mol)
C       -0.3689809232   -1.4576547332   -1.3858823910
C       -0.1536196575   -0.5941379364   -0.5627748996
H        0.0498937432    0.2058682499    0.1931202386
H       -0.5557149982   -2.2230003307   -2.1042277546
C        0.4068909404    1.6172446315    1.5286738868
N        0.6215308952    2.4516801189    2.3310909145
6    
Image 1/11, Energy =  -169.0528791141 (+0.000 kcal/mol)
C       -0.3435932930   -1.4589832171   -1.3586728009
C       -0.2649985769   -0.5247857827   -0.6112348124
H       -0.1463951844    0.2976941150    0.0870000161
H       -0.3950984191   -2.2836833121   -2.0063920065
C        0.3488897218    1.6668990242    1.5102457319
N        0.8011957515    2.3028591724    2.3790538682
6    
Image 2/11, Energy =  -169.0506851024 (+1.377 kcal/mol)
C       -0.3124820168   -1.4420102389   -1.3166739325
C       -0.3766816835   -0.4462385882   -0.6536414622
H       -0.3420981275    0.4156745136   -0.0037170811
H       -0.2259660188   -2.3227007686   -1.8795302852
C        0.3026178514    1.6951335529    1.4861102137
N        0.9546099949    2.1001415281    2.3674525451
6    
Image 3/11, Energy =  -169.0473856639 (+3.447 kcal/mol)
C       -0.2787841662   -1.4068416135   -1.2600900591
C       -0.4840493819   -0.3722411332   -0.6933200343
H       -0.5398055240    0.5213347349   -0.0997271126
H       -0.0552392949   -2.3195128332   -1.7251840889
C        0.2857874846    1.6958507058    1.4662415548
N        1.0720908821    1.8814101376    2.3120797391
6    
Image 4/11, Energy =  -169.0428828282 (+6.273 kcal/mol)
C       -0.2413776996   -1.3526334525   -1.1880529750
C       -0.5886697886   -0.3008400704   -0.7358541770
H       -0.7500041725    0.6169280766   -0.2166264208
H        0.1173182110   -2.2739261663   -1.5360039101
C        0.2977343921    1.6534460128    1.4454586478
N        1.1649990575    1.6570255977    2.2310788349
6    
Image 5/11, Energy =  -169.0373214655 (+9.763 kcal/mol)
C       -0.2069467223   -1.2806499015   -1.1065837604
C       -0.6816458808   -0.2359884942   -0.7724790841
H       -0.9591117239    0.6934932643   -0.3467346436
H        0.2799499894   -2.1825716227   -1.3238111555
C        0.3329422915    1.5505623428    1.4039797903
N        1.2348120461    1.4551544083    2.1456288542
6    
Image 6/11, Energy =  -169.0296023466 (+14.606 kcal/mol)
C       -0.1853928865   -1.1958490585   -1.0236440109
C       -0.7469235166   -0.1704298740   -0.7797038075
H       -1.1467168830    0.7520025047   -0.4690484320
H        0.4248433535   -2.0433582179   -1.0973477008
C        0.3826981602    1.3735596230    1.3060665989
N        1.2714917723    1.2840750193    2.0636773536
6    
Image 7/11, Energy =  -169.0137776962 (+24.537 kcal/mol)
C       -0.2008602675   -1.1305097424   -0.9882601182
C       -0.7300040976   -0.0893233484   -0.7071962343
H       -1.2785430881    0.7872882614   -0.5605989428
H        0.5269698590   -1.8779574044   -0.8892544226
C        0.4239808475    1.1288323947    1.1645687271
N        1.2584567466    1.1816698354    1.9807409926
6    
Image 8/11, Energy =  -168.9961774026 (+35.581 kcal/mol)
C       -0.2504095673   -1.1026249036   -1.0116495101
C       -0.6169730424    0.0073776895   -0.5403115348
H       -1.3248940210    0.7883299439   -0.6013582734
H        0.5686216537   -1.7399162210   -0.7533963977
C        0.4404992923    0.9005035167    1.0207462442
N        1.1831556848    1.1463299706    1.8859694738
6    
Image 9/11, Energy =  -169.0167554039 (+22.668 kcal/mol)
C       -0.2705582933   -1.0735670354   -1.0106239303
C       -0.5088435310    0.0878743144   -0.3873233787
H       -1.3085968948    0.7818393034   -0.5896825363
H        0.5834265607   -1.6879044802   -0.7048343761
C        0.4009580028    0.7806827530    0.9089335525
N        1.1036141557    1.1110751407    1.7835306699
6    
Image 10/11, Energy =  -169.0437609544 (+5.722 kcal/mol)
C       -0.2721093513   -1.0384613434   -0.9953339881
C       -0.4664498990    0.1336943575   -0.3047184047
H       -1.3026915424    0.8069996864   -0.5503883163
H        0.6404231461   -1.5232274468   -0.5526624607
C        0.3524169885    0.6272448767    0.7650856657
N        1.0484106581    0.9937498643    1.6380174988
