6    
Image 0/11, Energy =  -169.0522692293 (+0.802 kcal/mol)
C       -0.3689809232   -1.4576547332   -1.3858823910
C       -0.1536196575   -0.5941379364   -0.5627748996
H        0.0498937432    0.2058682499    0.1931202386
H       -0.5557149982   -2.2230003307   -2.1042277546
C        0.4068909404    1.6172446315    1.5286738868
N        0.6215308952    2.4516801189    2.3310909145
6    
Image 1/11, Energy =  -169.0535467605 (+0.000 kcal/mol)
C       -0.3537073825   -1.4770469050   -1.3885328509
C       -0.2638333318   -0.5611211076   -0.6196076140
H       -0.1385920086    0.2442631967    0.0931534305
H       -0.4160098004   -2.2865455993   -2.0570197653
C        0.3796900765    1.6855208711    1.5695495497
N        0.7924524489    2.3949295429    2.4024572509
6    
Image 2/11, Energy =  -169.0521152381 (+0.898 kcal/mol)
C       -0.3285258855   -1.4685661963   -1.3610522925
C       -0.3508943915   -0.5074958782   -0.6446777588
H       -0.2972675010    0.3312841046    0.0339477463
H       -0.2832807798   -2.3186893494   -1.9780850884
C        0.3253226001    1.7207029543    1.5491377520
N        0.9346459565    2.2427643639    2.4007296447
6    
Image 3/11, Energy =  -169.0497786215 (+2.365 kcal/mol)
C       -0.2996688049   -1.4439015745   -1.3142239308
C       -0.4352981078   -0.4403368720   -0.6730429340
H       -0.4547775376    0.4309784506   -0.0405096764
H       -0.1461334362   -2.3312822439   -1.8560485874
C        0.2922914095    1.7398084233    1.5200057807
N        1.0435864750    2.0447338163    2.3638193515
6    
Image 4/11, Energy =  -169.0459763230 (+4.751 kcal/mol)
C       -0.2618057117   -1.4004267226   -1.2398577884
C       -0.5313641973   -0.3621909917   -0.7069480057
H       -0.6479678850    0.5438407876   -0.1487221937
H        0.0175599993   -2.3145786984   -1.6754876149
C        0.2805846223    1.7572898140    1.4895896636
N        1.1429931710    1.7760658118    2.2814259428
6    
Image 5/11, Energy =  -169.0409709716 (+7.891 kcal/mol)
C       -0.2225509101   -1.3374551523   -1.1472723794
C       -0.6334623204   -0.2873072477   -0.7481585475
H       -0.8682163015    0.6434671995   -0.2917786495
H        0.1890690732   -2.2543240526   -1.4517495250
C        0.3184840896    1.7384260075    1.4629315246
N        1.2166763682    1.4971932457    2.1760275807
6    
Image 6/11, Energy =  -169.0353113598 (+11.443 kcal/mol)
C       -0.1914933740   -1.2503943276   -1.0454135944
C       -0.7267772447   -0.2119651992   -0.7943395234
H       -1.0868824719    0.7245398403   -0.4614647979
H        0.3444237271   -2.1408761635   -1.1966225699
C        0.3780664640    1.6333470987    1.4302920966
N        1.2826628982    1.2453487494    2.0675483956
6    
Image 7/11, Energy =  -169.0288098620 (+15.523 kcal/mol)
C       -0.1715235705   -1.1525185837   -0.9635030388
C       -0.7971324963   -0.1456406379   -0.8205502339
H       -1.2577124578    0.7736718370   -0.5927271708
H        0.4735719224   -1.9807753604   -0.9639833375
C        0.4171421499    1.3991818732    1.3370062065
N        1.3356544507    1.1060808688    2.0037575823
6    
Image 8/11, Energy =  -169.0143153290 (+24.618 kcal/mol)
C       -0.1947051000   -1.1093536205   -0.9602407369
C       -0.7536693729   -0.0717869388   -0.7356589693
H       -1.3061938195    0.8086841357   -0.6141509464
H        0.5351768181   -1.8504830117   -0.8235133404
C        0.4222265348    1.1163278112    1.1790648200
N        1.2971649377    1.1066116206    1.9544991817
6    
Image 9/11, Energy =  -168.9961561685 (+36.013 kcal/mol)
C       -0.2553667864   -1.0998173939   -1.0084971747
C       -0.6137021503    0.0161947006   -0.5449296381
H       -1.3091006490    0.8071133014   -0.6180637960
H        0.5496114855   -1.7495302199   -0.7377546362
C        0.4352636840    0.8968647088    1.0268684992
N        1.1932944145    1.1291748994    1.8823767546
6    
Image 10/11, Energy =  -169.0437609544 (+6.141 kcal/mol)
C       -0.2721093513   -1.0384613434   -0.9953339881
C       -0.4664498990    0.1336943575   -0.3047184047
H       -1.3026915424    0.8069996864   -0.5503883163
H        0.6404231461   -1.5232274468   -0.5526624607
C        0.3524169885    0.6272448767    0.7650856657
N        1.0484106581    0.9937498643    1.6380174988
