6    
Image 0/11, Energy =  -169.0522692293 (+0.138 kcal/mol)
C       -0.3689809232   -1.4576547332   -1.3858823910
C       -0.1536196575   -0.5941379364   -0.5627748996
H        0.0498937432    0.2058682499    0.1931202386
H       -0.5557149982   -2.2230003307   -2.1042277546
C        0.4068909404    1.6172446315    1.5286738868
N        0.6215308952    2.4516801189    2.3310909145
6    
Image 1/11, Energy =  -169.0524897267 (+0.000 kcal/mol)
C       -0.3403775021   -1.4502742850   -1.3516403976
C       -0.2718700707   -0.5120714306   -0.6085376754
H       -0.1539882868    0.3115985266    0.0908872936
H       -0.3828177981   -2.2801351179   -1.9916877959
C        0.3544834001    1.6454337331    1.4950236671
N        0.7945702576    2.2854485732    2.3659549039
6    
Image 2/11, Energy =  -169.0501119550 (+1.492 kcal/mol)
C       -0.3095768288   -1.4311959607   -1.3090783357
C       -0.3895592515   -0.4332550118   -0.6523306530
H       -0.3545355577    0.4265421042   -0.0001143725
H       -0.2075506760   -2.3138820460   -1.8622255536
C        0.3207998364    1.6587964759    1.4671184619
N        0.9404224774    2.0929944374    2.3566304495
6    
Image 3/11, Energy =  -169.0464713763 (+3.777 kcal/mol)
C       -0.2752823883   -1.3944000485   -1.2498237006
C       -0.5017766354   -0.3584152479   -0.6957157032
H       -0.5590212030    0.5332026070   -0.1012513431
H       -0.0312351754   -2.3059277504   -1.7017490327
C        0.3099967826    1.6435605125    1.4408783741
N        1.0573186193    1.8819799257    2.3076614029
6    
Image 4/11, Energy =  -169.0417614313 (+6.732 kcal/mol)
C       -0.2407224968   -1.3413764722   -1.1802665953
C       -0.6030466571   -0.2934428924   -0.7333487201
H       -0.7619236356    0.6220441034   -0.2118695367
H        0.1366711199   -2.2555568406   -1.5208414052
C        0.3241228304    1.5877183850    1.4086857597
N        1.1448988391    1.6806137148    2.2376404955
6    
Image 5/11, Energy =  -169.0359059955 (+10.406 kcal/mol)
C       -0.2108729683   -1.2740168180   -1.1052391892
C       -0.6866326219   -0.2340242279   -0.7605018419
H       -0.9580601564    0.6925406091   -0.3285792670
H        0.2907510330   -2.1652621158   -1.3233453729
C        0.3568026418    1.4824107079    1.3569972334
N        1.2080120717    1.4983518421    2.1606684359
6    
Image 6/11, Energy =  -169.0276031764 (+15.617 kcal/mol)
C       -0.1955609566   -1.1999076331   -1.0371017445
C       -0.7346470569   -0.1718225603   -0.7573009182
H       -1.1347059397    0.7451711947   -0.4401700264
H        0.4235381901   -2.0380705799   -1.1167876579
C        0.3998642971    1.3212358462    1.2691751161
N        1.2415114660    1.3433937295    2.0821852297
6    
Image 7/11, Energy =  -169.0117671717 (+25.554 kcal/mol)
C       -0.2107650136   -1.1403466438   -1.0046205719
C       -0.7113729217   -0.0941263683   -0.6826530324
H       -1.2660469622    0.7751888854   -0.5290649552
H        0.5211514034   -1.8853417400   -0.9235321837
C        0.4382165126    1.1110520496    1.1446047983
N        1.2288169815    1.2335738136    1.9952659438
6    
Image 8/11, Energy =  -168.9962095752 (+35.316 kcal/mol)
C       -0.2521017274   -1.1071225378   -1.0124967807
C       -0.6147172349    0.0007663608   -0.5348186425
H       -1.3285275706    0.7771612328   -0.5801577220
H        0.5733094678   -1.7452322116   -0.7799511606
C        0.4535624527    0.9029231068    1.0129913839
N        1.1684746123    1.1715040456    1.8944329210
6    
Image 9/11, Energy =  -169.0185482941 (+21.299 kcal/mol)
C       -0.2719625407   -1.0757313618   -1.0098519562
C       -0.5069208751    0.0856173936   -0.3812100654
H       -1.3135117928    0.7752545914   -0.5708757088
H        0.5941013435   -1.6770996172   -0.7120044684
C        0.4053041628    0.7756593125    0.8955899561
N        1.0929897024    1.1162996774    1.7783522409
6    
Image 10/11, Energy =  -169.0437609544 (+5.477 kcal/mol)
C       -0.2721093513   -1.0384613434   -0.9953339881
C       -0.4664498990    0.1336943575   -0.3047184047
H       -1.3026915424    0.8069996864   -0.5503883163
H        0.6404231461   -1.5232274468   -0.5526624607
C        0.3524169885    0.6272448767    0.7650856657
N        1.0484106581    0.9937498643    1.6380174988
