6    
Image 0/11, Energy =  -169.0522692293 (+0.350 kcal/mol)
C       -0.3689809232   -1.4576547332   -1.3858823910
C       -0.1536196575   -0.5941379364   -0.5627748996
H        0.0498937432    0.2058682499    0.1931202386
H       -0.5557149982   -2.2230003307   -2.1042277546
C        0.4068909404    1.6172446315    1.5286738868
N        0.6215308952    2.4516801189    2.3310909145
6    
Image 1/11, Energy =  -169.0528264348 (+0.000 kcal/mol)
C       -0.3467094976   -1.4527260324   -1.3651503780
C       -0.2757330371   -0.5277901171   -0.6045752207
H       -0.1429449811    0.2860786424    0.1028643474
H       -0.3915300556   -2.2753288248   -2.0156783723
C        0.3858763361    1.6333968006    1.5165261451
N        0.7710412351    2.3363695310    2.3660134746
6    
Image 2/11, Energy =  -169.0507508826 (+1.302 kcal/mol)
C       -0.3221877542   -1.4398234652   -1.3322843757
C       -0.3944949466   -0.4605007546   -0.6468041577
H       -0.3343345668    0.3845969125    0.0234178153
H       -0.2240147542   -2.3097242794   -1.9085292654
C        0.3706911873    1.6373280707    1.4918013845
N        0.9043408340    2.1881235157    2.3723985965
6    
Image 3/11, Energy =  -169.0474994188 (+3.343 kcal/mol)
C       -0.2943055685   -1.4128401594   -1.2821553471
C       -0.5030513373   -0.3947046552   -0.6904066097
H       -0.5260368671    0.4798442050   -0.0658539931
H       -0.0590104608   -2.3100271836   -1.7702507507
C        0.3674919755    1.6266241872    1.4582685862
N        1.0149122576    2.0111036054    2.3503981129
6    
Image 4/11, Energy =  -169.0431342015 (+6.082 kcal/mol)
C       -0.2611521110   -1.3685079993   -1.2179098351
C       -0.6010965353   -0.3321429146   -0.7255080494
H       -0.7201090352    0.5691405290   -0.1681304703
H        0.1011970985   -2.2721594480   -1.6011289603
C        0.3794304726    1.5900390156    1.4114391954
N        1.1017301098    1.8136308163    2.3012381191
6    
Image 5/11, Energy =  -169.0376012841 (+9.554 kcal/mol)
C       -0.2269508865   -1.3046742248   -1.1392796635
C       -0.6830362422   -0.2699439117   -0.7518858675
H       -0.9108169936    0.6496294019   -0.2795421417
H        0.2525391904   -2.1947941693   -1.4044768365
C        0.4028447027    1.5125572837    1.3453487323
N        1.1654202288    1.6072256187    2.2298357768
6    
Image 6/11, Energy =  -169.0296531716 (+14.541 kcal/mol)
C       -0.2035890159   -1.2247612907   -1.0562008810
C       -0.7366427453   -0.2001728954   -0.7555025548
H       -1.0973255882    0.7186345630   -0.3987302405
H        0.3958672211   -2.0698221973   -1.1805350695
C        0.4360345874    1.3700145785    1.2541549117
N        1.2056555405    1.4061072396    2.1368138338
6    
Image 7/11, Energy =  -169.0134257244 (+24.724 kcal/mol)
C       -0.2140431989   -1.1487959151   -1.0058426146
C       -0.7210526653   -0.1069157858   -0.6907534386
H       -1.2618814329    0.7654625929   -0.5164214610
H        0.5183974005   -1.8910941212   -0.9363473366
C        0.4653225892    1.1479003861    1.1278707344
N        1.2132573073    1.2334428400    2.0214941159
6    
Image 8/11, Energy =  -168.9961739493 (+35.550 kcal/mol)
C       -0.2581622271   -1.1064440688   -1.0091254953
C       -0.6121367636    0.0130157317   -0.5313578535
H       -1.3460100116    0.7703060669   -0.5919011219
H        0.5852304608   -1.7089893805   -0.7427843581
C        0.4630962267    0.9024976586    0.9868209409
N        1.1679823149    1.1296139884    1.8883478870
6    
Image 9/11, Energy =  -169.0178988930 (+21.917 kcal/mol)
C       -0.2715366195   -1.0772888099   -1.0035015700
C       -0.5171578946    0.0900806512   -0.3942781110
H       -1.3297853565    0.7721850139   -0.5838907479
H        0.6043041838   -1.6470249824   -0.6807555144
C        0.4122749168    0.7788714929    0.8843118553
N        1.1019007701    1.0831766302    1.7781140860
6    
Image 10/11, Energy =  -169.0437609544 (+5.689 kcal/mol)
C       -0.2721093513   -1.0384613434   -0.9953339881
C       -0.4664498990    0.1336943575   -0.3047184047
H       -1.3026915424    0.8069996864   -0.5503883163
H        0.6404231461   -1.5232274468   -0.5526624607
C        0.3524169885    0.6272448767    0.7650856657
N        1.0484106581    0.9937498643    1.6380174988
