6    
Image 0/11, Energy =  -169.0522692293 (+0.000 kcal/mol)
C       -0.3689809232   -1.4576547332   -1.3858823910
C       -0.1536196575   -0.5941379364   -0.5627748996
H        0.0498937432    0.2058682499    0.1931202386
H       -0.5557149982   -2.2230003307   -2.1042277546
C        0.4068909404    1.6172446315    1.5286738868
N        0.6215308952    2.4516801189    2.3310909145
6    
Image 1/11, Energy =  -169.0520698977 (+0.125 kcal/mol)
C       -0.3557601282   -1.4502557391   -1.3570438492
C       -0.2671891343   -0.5165626734   -0.6144179857
H       -0.1379096364    0.2697408119    0.1216078752
H       -0.4016902736   -2.2623964581   -2.0276111008
C        0.4445793575    1.5744556008    1.5451718291
N        0.7179698150    2.3850184571    2.3322932290
6    
Image 2/11, Energy =  -169.0490949635 (+1.992 kcal/mol)
C       -0.3378560482   -1.4367465331   -1.3280134470
C       -0.3848161137   -0.4503972215   -0.6509408759
H       -0.3198997488    0.3544897673    0.0608584436
H       -0.2429834394   -2.2854568363   -1.9380074086
C        0.4744019389    1.5175680362    1.5303052862
N        0.8111534112    2.3005427875    2.3257980013
6    
Image 3/11, Energy =  -169.0450926952 (+4.503 kcal/mol)
C       -0.3003320313   -1.4077245170   -1.2793810194
C       -0.5019967316   -0.3936972252   -0.6819670248
H       -0.5163564593    0.4564509146   -0.0367384963
H       -0.0823406510   -2.2854453400   -1.8097959456
C        0.4850717965    1.4659195443    1.4894200867
N        0.9159540763    2.1644966223    2.3184623993
6    
Image 4/11, Energy =  -169.0402470676 (+7.544 kcal/mol)
C       -0.2512517998   -1.3627634076   -1.2137066324
C       -0.6117285033   -0.3336459862   -0.7175731174
H       -0.7293892012    0.5462112125   -0.1434978971
H        0.0787274872   -2.2573344364   -1.6480212707
C        0.4923475462    1.4301753231    1.4219365646
N        1.0212944693    1.9773572943    2.3008623530
6    
Image 5/11, Energy =  -169.0350176177 (+10.826 kcal/mol)
C       -0.2114088562   -1.2958393199   -1.1275805327
C       -0.6895302368   -0.2796355969   -0.7407763028
H       -0.9346833600    0.6386744083   -0.2657573417
H        0.2350363860   -2.1936534136   -1.4527143636
C        0.4874871872    1.3984253100    1.3318613475
N        1.1130988787    1.7320286120    2.2549671928
6    
Image 6/11, Energy =  -169.0288954869 (+14.667 kcal/mol)
C       -0.1853693799   -1.2249055180   -1.0368258380
C       -0.7382339588   -0.2129795636   -0.7287227407
H       -1.1117064729    0.7150587190   -0.3919406839
H        0.3814415812   -2.0865943505   -1.2379138309
C        0.4850291362    1.3425939639    1.2291069278
N        1.1688390929    1.4668267485    2.1662961647
6    
Image 7/11, Energy =  -169.0168894328 (+22.201 kcal/mol)
C       -0.1872525616   -1.1570944925   -0.9659994470
C       -0.7311071455   -0.1220324344   -0.6735951204
H       -1.2446511377    0.7691908626   -0.4972931069
H        0.5059946785   -1.9398026082   -1.0081304416
C        0.4777010097    1.2292370086    1.1067023140
N        1.1793151563    1.2205016618    2.0383158029
6    
Image 8/11, Energy =  -168.9964454774 (+35.030 kcal/mol)
C       -0.2305979801   -1.1077971039   -0.9617007212
C       -0.6280439367   -0.0163596876   -0.5446000736
H       -1.3132448021    0.7848632145   -0.5634472560
H        0.5724753400   -1.7947606308   -0.8249591267
C        0.4514754561    1.0377199016    0.9808469942
N        1.1479359228    1.0963343036    1.9138601838
6    
Image 9/11, Energy =  -169.0178229500 (+21.615 kcal/mol)
C       -0.2653710193   -1.0729979166   -0.9804127899
C       -0.4938167820    0.0964302651   -0.3676214253
H       -1.3054587162    0.7626550201   -0.5609365411
H        0.5869498256   -1.6984913750   -0.7436608371
C        0.4024008321    0.8316903141    0.8665413150
N        1.0752958599    1.0807136880    1.7860902787
6    
Image 10/11, Energy =  -169.0437609544 (+5.339 kcal/mol)
C       -0.2721093513   -1.0384613434   -0.9953339881
C       -0.4664498990    0.1336943575   -0.3047184047
H       -1.3026915424    0.8069996864   -0.5503883163
H        0.6404231461   -1.5232274468   -0.5526624607
C        0.3524169885    0.6272448767    0.7650856657
N        1.0484106581    0.9937498643    1.6380174988
