6    
Image 0/11, Energy =  -169.0522692293 (+0.000 kcal/mol)
C       -0.3689809232   -1.4576547332   -1.3858823910
C       -0.1536196575   -0.5941379364   -0.5627748996
H        0.0498937432    0.2058682499    0.1931202386
H       -0.5557149982   -2.2230003307   -2.1042277546
C        0.4068909404    1.6172446315    1.5286738868
N        0.6215308952    2.4516801189    2.3310909145
6    
Image 1/11, Energy =  -169.0511704350 (+0.690 kcal/mol)
C       -0.3611695840   -1.4429981881   -1.3601449479
C       -0.2924291704   -0.5380174393   -0.5800928883
H       -0.0969331503    0.3034013658    0.0983289251
H       -0.3965413172   -2.2566730361   -2.0242950587
C        0.4395465838    1.5570237840    1.5393203595
N        0.7075266381    2.3772635166    2.3268836097
6    
Image 2/11, Energy =  -169.0474380231 (+3.032 kcal/mol)
C       -0.3322568825   -1.4259999618   -1.3406115626
C       -0.4082518849   -0.4828855054   -0.6073377098
H       -0.2956013345    0.3903179717    0.0229390168
H       -0.2475924612   -2.2807957446   -1.9422180621
C        0.4931306630    1.4761804796    1.5606343127
N        0.7905719001    2.3231827574    2.3065940050
6    
Image 3/11, Energy =  -169.0434401381 (+5.540 kcal/mol)
C       -0.3007530990   -1.3944452413   -1.3087947720
C       -0.4921568375   -0.4231155391   -0.6387669192
H       -0.5298715346    0.4555297723   -0.0227273953
H       -0.0918388507   -2.2756429672   -1.8308209031
C        0.5420426578    1.4139311832    1.5141329182
N        0.8725776640    2.2237427913    2.2869770715
6    
Image 4/11, Energy =  -169.0374082694 (+9.325 kcal/mol)
C       -0.2753166416   -1.3524387875   -1.2414324650
C       -0.5412723759   -0.3456286042   -0.6617814569
H       -0.7468860591    0.5647355775   -0.1455810535
H        0.0663090833   -2.2533412811   -1.6468787775
C        0.5055704329    1.3933565063    1.4092293818
N        0.9915955596    1.9933165890    2.2864443712
6    
Image 5/11, Energy =  -169.0308524736 (+13.439 kcal/mol)
C       -0.2468685468   -1.2977323422   -1.1564190338
C       -0.6027800914   -0.2617266700   -0.6810713354
H       -0.9773312223    0.6442423899   -0.2905992499
H        0.2353761804   -2.1849607729   -1.4367119358
C        0.4916206749    1.3636763515    1.3196322081
N        1.0999830017    1.7365010437    2.2451693467
6    
Image 6/11, Energy =  -169.0242007055 (+17.613 kcal/mol)
C       -0.2241745835   -1.2381294306   -1.0681165724
C       -0.6532760390   -0.1866072479   -0.6786434874
H       -1.1554359856    0.6914321652   -0.4006677679
H        0.3778386768   -2.0809474821   -1.2453844721
C        0.4942228188    1.3123926476    1.2264083526
N        1.1608251117    1.5018593478    2.1664039464
6    
Image 7/11, Energy =  -169.0132586782 (+24.479 kcal/mol)
C       -0.2161668497   -1.1766839098   -0.9723745042
C       -0.6706961918   -0.1090224583   -0.6268216859
H       -1.2574076320    0.7454604898   -0.5035422741
H        0.4944459578   -1.9460503441   -1.0547715933
C        0.4797046968    1.2277642731    1.1085414481
N        1.1701200189    1.2585319482    2.0489686069
6    
Image 8/11, Energy =  -168.9947591824 (+36.088 kcal/mol)
C       -0.2343847864   -1.1203928066   -0.9000222430
C       -0.6326595614   -0.0006584253   -0.5205676810
H       -1.3104961830    0.7933047544   -0.5918660778
H        0.5932468648   -1.7813559529   -0.8477940891
C        0.4433398274    1.0732138782    0.9650384075
N        1.1409538387    1.0358885484    1.8952116865
6    
Image 9/11, Energy =  -169.0197673347 (+20.395 kcal/mol)
C       -0.2746356184   -1.0834606828   -0.9177574158
C       -0.5153452466    0.1221262722   -0.3645768063
H       -1.3111580874    0.8127875492   -0.6187582990
H        0.6397924459   -1.6585590712   -0.6888558783
C        0.3789779329    0.8328197661    0.8351517686
N        1.0823685737    0.9742861641    1.7547966316
6    
Image 10/11, Energy =  -169.0437609544 (+5.339 kcal/mol)
C       -0.2721093513   -1.0384613434   -0.9953339881
C       -0.4664498990    0.1336943575   -0.3047184047
H       -1.3026915424    0.8069996864   -0.5503883163
H        0.6404231461   -1.5232274468   -0.5526624607
C        0.3524169885    0.6272448767    0.7650856657
N        1.0484106581    0.9937498643    1.6380174988
