6    
Image 0/11, Energy =  -169.0522692293 (+0.129 kcal/mol)
C       -0.3689809232   -1.4576547332   -1.3858823910
C       -0.1536196575   -0.5941379364   -0.5627748996
H        0.0498937432    0.2058682499    0.1931202386
H       -0.5557149982   -2.2230003307   -2.1042277546
C        0.4068909404    1.6172446315    1.5286738868
N        0.6215308952    2.4516801189    2.3310909145
6    
Image 1/11, Energy =  -169.0524749365 (+0.000 kcal/mol)
C       -0.3402221347   -1.4500568014   -1.3513613968
C       -0.2723241233   -0.5114412642   -0.6087359746
H       -0.1546178636    0.3123582808    0.0904544587
H       -0.3821388940   -2.2802789763   -1.9908555364
C        0.3540983899    1.6450714987    1.4947919063
N        0.7952046257    2.2843472618    2.3657065385
6    
Image 2/11, Energy =  -169.0500279013 (+1.536 kcal/mol)
C       -0.3086347177   -1.4300632876   -1.3073013180
C       -0.3909738299   -0.4305995960   -0.6533337245
H       -0.3574081620    0.4300748528   -0.0023770924
H       -0.2047049775   -2.3140187614   -1.8578889248
C        0.3183057820    1.6581319960    1.4660833871
N        0.9434159051    2.0864747950    2.3548176692
6    
Image 3/11, Energy =  -169.0463846841 (+3.822 kcal/mol)
C       -0.2744052940   -1.3931665889   -1.2483134037
C       -0.5031168871   -0.3564488733   -0.6965764023
H       -0.5619532860    0.5359495958   -0.1037877074
H       -0.0284711965   -2.3053454786   -1.6976138768
C        0.3080849228    1.6425030396    1.4411228707
N        1.0598617406    1.8765083038    2.3051685170
6    
Image 4/11, Energy =  -169.0416686888 (+6.781 kcal/mol)
C       -0.2400025300   -1.3399787558   -1.1787007805
C       -0.6040231200   -0.2914315983   -0.7346509867
H       -0.7649373886    0.6242413883   -0.2143635977
H        0.1392878979   -2.2544220256   -1.5163906633
C        0.3225181717    1.5862591018    1.4093516116
N        1.1471569689    1.6753318875    2.2347544144
6    
Image 5/11, Energy =  -169.0358358343 (+10.441 kcal/mol)
C       -0.2105188170   -1.2728225068   -1.1043390091
C       -0.6871420507   -0.2325730277   -0.7615942499
H       -0.9606645322    0.6938270280   -0.3307641954
H        0.2925284337   -2.1640046528   -1.3195372373
C        0.3562008172    1.4813838851    1.3574914782
N        1.2095961490    1.4941892716    2.1587432119
6    
Image 6/11, Energy =  -169.0274930074 (+15.676 kcal/mol)
C       -0.1952142476   -1.1985885958   -1.0361458082
C       -0.7350514994   -0.1705400857   -0.7575621532
H       -1.1368434305    0.7462850688   -0.4422527045
H        0.4252798554   -2.0360401713   -1.1130140465
C        0.3990267561    1.3192487734    1.2691018194
N        1.2428025660    1.3396350076    2.0798728918
6    
Image 7/11, Energy =  -169.0117096781 (+25.581 kcal/mol)
C       -0.2107208158   -1.1400582314   -1.0043510194
C       -0.7112713633   -0.0937478904   -0.6823452105
H       -1.2664736185    0.7754136192   -0.5296079032
H        0.5215260731   -1.8847491546   -0.9227790634
C        0.4379199528    1.1103207762    1.1444773999
N        1.2290197717    1.2328208777    1.9946057957
6    
Image 8/11, Energy =  -168.9962095752 (+35.307 kcal/mol)
C       -0.2521017274   -1.1071225378   -1.0124967807
C       -0.6147172349    0.0007663608   -0.5348186425
H       -1.3285275706    0.7771612328   -0.5801577220
H        0.5733094678   -1.7452322116   -0.7799511606
C        0.4535624527    0.9029231068    1.0129913839
N        1.1684746123    1.1715040456    1.8944329210
6    
Image 9/11, Energy =  -169.0185482941 (+21.289 kcal/mol)
C       -0.2719625407   -1.0757313618   -1.0098519562
C       -0.5069208751    0.0856173936   -0.3812100654
H       -1.3135117928    0.7752545914   -0.5708757088
H        0.5941013435   -1.6770996172   -0.7120044684
C        0.4053041628    0.7756593125    0.8955899561
N        1.0929897024    1.1162996774    1.7783522409
6    
Image 10/11, Energy =  -169.0437609544 (+5.468 kcal/mol)
C       -0.2721093513   -1.0384613434   -0.9953339881
C       -0.4664498990    0.1336943575   -0.3047184047
H       -1.3026915424    0.8069996864   -0.5503883163
H        0.6404231461   -1.5232274468   -0.5526624607
C        0.3524169885    0.6272448767    0.7650856657
N        1.0484106581    0.9937498643    1.6380174988
