6    
Image 0/11, Energy =  -169.0522692293 (+0.185 kcal/mol)
C       -0.3689809232   -1.4576547332   -1.3858823910
C       -0.1536196575   -0.5941379364   -0.5627748996
H        0.0498937432    0.2058682499    0.1931202386
H       -0.5557149982   -2.2230003307   -2.1042277546
C        0.4068909404    1.6172446315    1.5286738868
N        0.6215308952    2.4516801189    2.3310909145
6    
Image 1/11, Energy =  -169.0525634179 (+0.000 kcal/mol)
C       -0.3412718606   -1.4513686832   -1.3531924083
C       -0.2708795552   -0.5150182551   -0.6077408461
H       -0.1514435320    0.3075619558    0.0926621184
H       -0.3853742107   -2.2792756638   -1.9959327386
C        0.3575797259    1.6460116631    1.4970899425
N        0.7913894326    2.2920889827    2.3671139280
6    
Image 2/11, Energy =  -169.0502207824 (+1.470 kcal/mol)
C       -0.3107677570   -1.4326814222   -1.3112116687
C       -0.3879553503   -0.4367733169   -0.6510767906
H       -0.3511038382    0.4220112240    0.0025232695
H       -0.2109816488   -2.3136097922   -1.8678377355
C        0.3237709286    1.6595652283    1.4682801787
N        0.9370376655    2.1014880781    2.3593227434
6    
Image 3/11, Energy =  -169.0466489334 (+3.711 kcal/mol)
C       -0.2768971715   -1.3968533348   -1.2534194893
C       -0.4996723438   -0.3631738178   -0.6933684036
H       -0.5536824271    0.5276587051   -0.0971669402
H       -0.0363681426   -2.3069764287   -1.7101797081
C        0.3137665693    1.6459019826    1.4413733343
N        1.0528535154    1.8934428920    2.3127612045
6    
Image 4/11, Energy =  -169.0419337403 (+6.670 kcal/mol)
C       -0.2420293198   -1.3439708873   -1.1833657357
C       -0.6014346507   -0.2972107395   -0.7310856458
H       -0.7568136083    0.6178809972   -0.2076106382
H        0.1319942899   -2.2576877170   -1.5288863166
C        0.3274752964    1.5906963682    1.4078909789
N        1.1408079924    1.6902919763    2.2430573554
6    
Image 5/11, Energy =  -169.0360415182 (+10.368 kcal/mol)
C       -0.2115389723   -1.2763559662   -1.1068976954
C       -0.6854856250   -0.2367238900   -0.7585598193
H       -0.9538155234    0.6898106322   -0.3243338575
H        0.2871842735   -2.1677995033   -1.3305767255
C        0.3594005934    1.4852446956    1.3552645453
N        1.2042552537    1.5058240292    2.1651035509
6    
Image 6/11, Energy =  -169.0277571245 (+15.566 kcal/mol)
C       -0.1957260971   -1.2018302380   -1.0380620810
C       -0.7339530024   -0.1738406285   -0.7563708003
H       -1.1313734947    0.7434393595   -0.4366076738
H        0.4207005650   -2.0412845113   -1.1231098588
C        0.4016115511    1.3243472052    1.2683418250
N        1.2387404781    1.3491688101    2.0858085878
6    
Image 7/11, Energy =  -169.0119182669 (+25.505 kcal/mol)
C       -0.2107762537   -1.1409658386   -1.0051116964
C       -0.7116906733   -0.0950040312   -0.6835271165
H       -1.2651811957    0.7746214091   -0.5278498827
H        0.5202562329   -1.8868415431   -0.9254188757
C        0.4389139330    1.1127520617    1.1449597860
N        1.2284779568    1.2354379388    1.9969477844
6    
Image 8/11, Energy =  -168.9962095752 (+35.363 kcal/mol)
C       -0.2521017274   -1.1071225378   -1.0124967807
C       -0.6147172349    0.0007663608   -0.5348186425
H       -1.3285275706    0.7771612328   -0.5801577220
H        0.5733094678   -1.7452322116   -0.7799511606
C        0.4535624527    0.9029231068    1.0129913839
N        1.1684746123    1.1715040456    1.8944329210
6    
Image 9/11, Energy =  -169.0185482941 (+21.345 kcal/mol)
C       -0.2719625407   -1.0757313618   -1.0098519562
C       -0.5069208751    0.0856173936   -0.3812100654
H       -1.3135117928    0.7752545914   -0.5708757088
H        0.5941013435   -1.6770996172   -0.7120044684
C        0.4053041628    0.7756593125    0.8955899561
N        1.0929897024    1.1162996774    1.7783522409
6    
Image 10/11, Energy =  -169.0437609544 (+5.524 kcal/mol)
C       -0.2721093513   -1.0384613434   -0.9953339881
C       -0.4664498990    0.1336943575   -0.3047184047
H       -1.3026915424    0.8069996864   -0.5503883163
H        0.6404231461   -1.5232274468   -0.5526624607
C        0.3524169885    0.6272448767    0.7650856657
N        1.0484106581    0.9937498643    1.6380174988
