6    
Image 0/11, Energy =  -169.0522692293 (+0.278 kcal/mol)
C       -0.3689809232   -1.4576547332   -1.3858823910
C       -0.1536196575   -0.5941379364   -0.5627748996
H        0.0498937432    0.2058682499    0.1931202386
H       -0.5557149982   -2.2230003307   -2.1042277546
C        0.4068909404    1.6172446315    1.5286738868
N        0.6215308952    2.4516801189    2.3310909145
6    
Image 1/11, Energy =  -169.0527118440 (+0.000 kcal/mol)
C       -0.3433674334   -1.4536099985   -1.3568272274
C       -0.2706334356   -0.5213457855   -0.6062035796
H       -0.1467919908    0.2987757459    0.0956755643
H       -0.3895911689   -2.2772554987   -2.0049977609
C        0.3658360551    1.6460075175    1.5030626716
N        0.7845479735    2.3074280190    2.3692903279
6    
Image 2/11, Energy =  -169.0505400611 (+1.363 kcal/mol)
C       -0.3141434581   -1.4383001125   -1.3170333531
C       -0.3852974944   -0.4478712473   -0.6474470095
H       -0.3415301452    0.4079030270    0.0090458144
H       -0.2202005891   -2.3121249333   -1.8857980670
C        0.3340873336    1.6630127803    1.4741778069
N        0.9270843528    2.1273804852    2.3670548054
6    
Image 3/11, Energy =  -169.0471871311 (+3.467 kcal/mol)
C       -0.2817678588   -1.4057026971   -1.2624495119
C       -0.4942476252   -0.3777397391   -0.6882060049
H       -0.5385392259    0.5096423869   -0.0856770886
H       -0.0509028609   -2.3093991556   -1.7370451330
C        0.3251821061    1.6537582187    1.4453683591
N        1.0402754644    1.9294409851    2.3280093773
6    
Image 4/11, Energy =  -169.0425781939 (+6.359 kcal/mol)
C       -0.2474121700   -1.3542677928   -1.1940168690
C       -0.5956927670   -0.3107653821   -0.7262219228
H       -0.7405752636    0.6009056202   -0.1928303131
H        0.1161611618   -2.2651196924   -1.5579500541
C        0.3400104747    1.6034130726    1.4073731426
N        1.1275085638    1.7258341728    2.2636460150
6    
Image 5/11, Energy =  -169.0365700397 (+10.129 kcal/mol)
C       -0.2150878501   -1.2845090478   -1.1150008719
C       -0.6815043895   -0.2457946995   -0.7543513867
H       -0.9413117687    0.6790846642   -0.3108741674
H        0.2748147419   -2.1770336443   -1.3527315968
C        0.3709178767    1.4996626799    1.3495633021
N        1.1921713894    1.5285900453    2.1833947196
6    
Image 6/11, Energy =  -169.0279843970 (+15.517 kcal/mol)
C       -0.1958467960   -1.2054943619   -1.0399240666
C       -0.7324069243   -0.1784538962   -0.7520567289
H       -1.1245570301    0.7393859679   -0.4274343975
H        0.4148660057   -2.0476743302   -1.1365331599
C        0.4083666593    1.3323344997    1.2614219635
N        1.2295780852    1.3599021179    2.0945263884
6    
Image 7/11, Energy =  -169.0120415559 (+25.521 kcal/mol)
C       -0.2100402550   -1.1423422462   -1.0045563336
C       -0.7109652968   -0.0973863357   -0.6806436137
H       -1.2616310251    0.7736040798   -0.5236738649
H        0.5174113478   -1.8921365520   -0.9349634156
C        0.4411947458    1.1151121276    1.1435152050
N        1.2240304834    1.2431489233    2.0003220219
6    
Image 8/11, Energy =  -168.9962095752 (+35.456 kcal/mol)
C       -0.2521017274   -1.1071225378   -1.0124967807
C       -0.6147172349    0.0007663608   -0.5348186425
H       -1.3285275706    0.7771612328   -0.5801577220
H        0.5733094678   -1.7452322116   -0.7799511606
C        0.4535624527    0.9029231068    1.0129913839
N        1.1684746123    1.1715040456    1.8944329210
6    
Image 9/11, Energy =  -169.0185482941 (+21.438 kcal/mol)
C       -0.2719625407   -1.0757313618   -1.0098519562
C       -0.5069208751    0.0856173936   -0.3812100654
H       -1.3135117928    0.7752545914   -0.5708757088
H        0.5941013435   -1.6770996172   -0.7120044684
C        0.4053041628    0.7756593125    0.8955899561
N        1.0929897024    1.1162996774    1.7783522409
6    
Image 10/11, Energy =  -169.0437609544 (+5.617 kcal/mol)
C       -0.2721093513   -1.0384613434   -0.9953339881
C       -0.4664498990    0.1336943575   -0.3047184047
H       -1.3026915424    0.8069996864   -0.5503883163
H        0.6404231461   -1.5232274468   -0.5526624607
C        0.3524169885    0.6272448767    0.7650856657
N        1.0484106581    0.9937498643    1.6380174988
