6    
Image 0/11, Energy =  -169.0522692293 (+0.000 kcal/mol)
C       -0.3689809232   -1.4576547332   -1.3858823910
C       -0.1536196575   -0.5941379364   -0.5627748996
H        0.0498937432    0.2058682499    0.1931202386
H       -0.5557149982   -2.2230003307   -2.1042277546
C        0.4068909404    1.6172446315    1.5286738868
N        0.6215308952    2.4516801189    2.3310909145
6    
Image 1/11, Energy =  -169.0520552101 (+0.134 kcal/mol)
C       -0.3602044538   -1.4500405793   -1.3530026757
C       -0.2668365237   -0.5180739735   -0.6102465521
H       -0.1318263631    0.2709109425    0.1130247136
H       -0.3999071690   -2.2547204899   -2.0234759321
C        0.4445148719    1.5662850120    1.5412473883
N        0.7142596378    2.3856390884    2.3324530562
6    
Image 2/11, Energy =  -169.0489159044 (+2.104 kcal/mol)
C       -0.3399263984   -1.4355353918   -1.3270605957
C       -0.3855878494   -0.4568897186   -0.6445741813
H       -0.3134386810    0.3557105958    0.0518193270
H       -0.2456534814   -2.2775538017   -1.9386203836
C        0.4828470791    1.5034824315    1.5391783463
N        0.8017593311    2.3107858840    2.3192574870
6    
Image 3/11, Energy =  -169.0446322865 (+4.792 kcal/mol)
C       -0.3015753504   -1.4040334558   -1.2867205265
C       -0.4971270249   -0.4015057498   -0.6670946499
H       -0.5200260957    0.4547639827   -0.0356991458
H       -0.0856974007   -2.2795076906   -1.8153578233
C        0.5028944044    1.4460494157    1.4963671462
N        0.9015314669    2.1842334968    2.3085049992
6    
Image 4/11, Energy =  -169.0398188943 (+7.813 kcal/mol)
C       -0.2566140303   -1.3563739498   -1.2176836695
C       -0.5925568738   -0.3392648306   -0.7047078215
H       -0.7336422236    0.5469709133   -0.1443049702
H        0.0728710842   -2.2533970639   -1.6485701795
C        0.4977712239    1.4139655145    1.4161687033
N        1.0121708180    1.9880994164    2.2990979374
6    
Image 5/11, Energy =  -169.0344216600 (+11.200 kcal/mol)
C       -0.2169965086   -1.2980679953   -1.1334391473
C       -0.6663040204   -0.2713957255   -0.7242927011
H       -0.9444780898    0.6298431856   -0.2768659537
H        0.2290020180   -2.1809845593   -1.4454178587
C        0.4890156917    1.3845814825    1.3256118345
N        1.1097609073    1.7360236119    2.2544038260
6    
Image 6/11, Energy =  -169.0276534654 (+15.447 kcal/mol)
C       -0.1919584544   -1.2252618660   -1.0437134673
C       -0.7147073711   -0.2097584172   -0.7122805504
H       -1.1167864710    0.6945520980   -0.4004686483
H        0.3689927183   -2.0714373225   -1.2391423541
C        0.4884556516    1.3313802381    1.2277744147
N        1.1660039255    1.4805252691    2.1678306042
6    
Image 7/11, Energy =  -169.0159892434 (+22.766 kcal/mol)
C       -0.1927160583   -1.1546136152   -0.9599897409
C       -0.7139657161   -0.1266068377   -0.6637009720
H       -1.2404084250    0.7496120785   -0.5015146537
H        0.4918621409   -1.9296832958   -1.0232174384
C        0.4790905946    1.2297613181    1.1064495562
N        1.1761374637    1.2315303502    2.0419732490
6    
Image 8/11, Energy =  -168.9951529117 (+35.841 kcal/mol)
C       -0.2222907183   -1.1138390263   -0.9398146483
C       -0.6373968776   -0.0060458665   -0.5387109043
H       -1.3029472838    0.7775161120   -0.5734859085
H        0.5683965611   -1.7795583876   -0.8292475417
C        0.4495408245    1.0479738252    0.9757179361
N        1.1446974941    1.0739533404    1.9055410677
6    
Image 9/11, Energy =  -169.0201318281 (+20.167 kcal/mol)
C       -0.2679911309   -1.0691918967   -0.9619337952
C       -0.4938524212    0.1045560349   -0.3601222062
H       -1.3058744184    0.7684156835   -0.5755680249
H        0.5966387530   -1.6852831513   -0.7309282158
C        0.3977680033    0.8282975731    0.8536302718
N        1.0733112143    1.0532057524    1.7749219710
6    
Image 10/11, Energy =  -169.0437609544 (+5.339 kcal/mol)
C       -0.2721093513   -1.0384613434   -0.9953339881
C       -0.4664498990    0.1336943575   -0.3047184047
H       -1.3026915424    0.8069996864   -0.5503883163
H        0.6404231461   -1.5232274468   -0.5526624607
C        0.3524169885    0.6272448767    0.7650856657
N        1.0484106581    0.9937498643    1.6380174988
