6    
Image 0/11, Energy =  -169.0522692293 (+0.815 kcal/mol)
C       -0.3689809232   -1.4576547332   -1.3858823910
C       -0.1536196575   -0.5941379364   -0.5627748996
H        0.0498937432    0.2058682499    0.1931202386
H       -0.5557149982   -2.2230003307   -2.1042277546
C        0.4068909404    1.6172446315    1.5286738868
N        0.6215308952    2.4516801189    2.3310909145
6    
Image 1/11, Energy =  -169.0535684151 (+0.000 kcal/mol)
C       -0.3540922716   -1.4823929321   -1.3933825575
C       -0.2631793159   -0.5659859560   -0.6249373481
H       -0.1400917406    0.2402456343    0.0852554290
H       -0.4196942184   -2.2925652561   -2.0604995465
C        0.3780161327    1.7004228664    1.5781982791
N        0.7990414180    2.4002756467    2.4153657446
6    
Image 2/11, Energy =  -169.0521051754 (+0.918 kcal/mol)
C       -0.3280143552   -1.4697528543   -1.3660314762
C       -0.3587156849   -0.5141683767   -0.6423790770
H       -0.3091130472    0.3223012625    0.0390683706
H       -0.2751688370   -2.3163388745   -1.9878119367
C        0.3272516979    1.7219167162    1.5591278834
N        0.9437602241    2.2560421197    2.3980262382
6    
Image 3/11, Energy =  -169.0505042948 (+1.923 kcal/mol)
C       -0.3070590751   -1.4536364661   -1.3311474776
C       -0.4155664178   -0.4629234866   -0.6649817121
H       -0.4184815288    0.3975449387   -0.0157143155
H       -0.1799188288   -2.3290851303   -1.8994191356
C        0.2981637194    1.7387456488    1.5353477247
N        1.0228621292    2.1093544903    2.3759149170
6    
Image 4/11, Energy =  -169.0462087299 (+4.618 kcal/mol)
C       -0.2644438958   -1.4026607316   -1.2432541173
C       -0.5209552108   -0.3645911836   -0.7032598492
H       -0.6318542348    0.5413735937   -0.1417512476
H        0.0050873859   -2.3179903464   -1.6840565111
C        0.2727170149    1.7640338231    1.4924289618
N        1.1394489388    1.7798348409    2.2798927641
6    
Image 5/11, Energy =  -169.0409421783 (+7.923 kcal/mol)
C       -0.2231087271   -1.3382526672   -1.1453226657
C       -0.6294370313   -0.2863319525   -0.7455079787
H       -0.8672008365    0.6460475593   -0.2930845536
H        0.1865996709   -2.2569766962   -1.4489937633
C        0.3142043116    1.7546689547    1.4699362430
N        1.2189426109    1.4808447985    2.1629727231
6    
Image 6/11, Energy =  -169.0359161469 (+11.077 kcal/mol)
C       -0.1959449953   -1.2622348466   -1.0515659002
C       -0.7153497885   -0.2180148714   -0.7901121926
H       -1.0641755988    0.7216725375   -0.4533215617
H        0.3207265018   -2.1617226717   -1.2168747429
C        0.3759596531    1.6817443393    1.4541078064
N        1.2787842243    1.2385555063    2.0577665979
6    
Image 7/11, Energy =  -169.0303057918 (+14.598 kcal/mol)
C       -0.1763668282   -1.1644774808   -0.9715685357
C       -0.7969141045   -0.1533803152   -0.8352450852
H       -1.2494589774    0.7704223643   -0.6064679088
H        0.4482920566   -2.0086410189   -0.9886604616
C        0.4166970265    1.4485034919    1.3950623002
N        1.3577508227    1.1075729492    2.0068796990
6    
Image 8/11, Energy =  -169.0189474576 (+21.725 kcal/mol)
C       -0.1846255918   -1.1132504667   -0.9559812213
C       -0.7737991209   -0.0893186284   -0.7677719860
H       -1.2963223653    0.8054614632   -0.6095761895
H        0.5230279933   -1.8805757516   -0.8532966567
C        0.4149054676    1.1691078987    1.2218376165
N        1.3168136135    1.1085754758    1.9647884449
6    
Image 9/11, Energy =  -168.9961883870 (+36.007 kcal/mol)
C       -0.2596109619   -1.1010698245   -1.0109825824
C       -0.6091861032    0.0161431937   -0.5426355166
H       -1.3014884146    0.8098259847   -0.6143085027
H        0.5412792180   -1.7583406325   -0.7463243237
C        0.4396633866    0.8933353528    1.0278083076
N        1.1893428709    1.1401059161    1.8864426256
6    
Image 10/11, Energy =  -169.0437609544 (+6.154 kcal/mol)
C       -0.2721093513   -1.0384613434   -0.9953339881
C       -0.4664498990    0.1336943575   -0.3047184047
H       -1.3026915424    0.8069996864   -0.5503883163
H        0.6404231461   -1.5232274468   -0.5526624607
C        0.3524169885    0.6272448767    0.7650856657
N        1.0484106581    0.9937498643    1.6380174988
