6    
Image 0/11, Energy =  -169.0522692293 (+0.206 kcal/mol)
C       -0.3689809232   -1.4576547332   -1.3858823910
C       -0.1536196575   -0.5941379364   -0.5627748996
H        0.0498937432    0.2058682499    0.1931202386
H       -0.5557149982   -2.2230003307   -2.1042277546
C        0.4068909404    1.6172446315    1.5286738868
N        0.6215308952    2.4516801189    2.3310909145
6    
Image 1/11, Energy =  -169.0525981286 (+0.000 kcal/mol)
C       -0.3505038811   -1.4476154141   -1.3688591335
C       -0.2788398774   -0.5275457668   -0.6017251135
H       -0.1343449982    0.2745585593    0.1146283840
H       -0.3969218181   -2.2665060052   -2.0231328386
C        0.4233169855    1.5934150032    1.5340887198
N        0.7372935891    2.3736936234    2.3449999787
6    
Image 2/11, Energy =  -169.0500489871 (+1.600 kcal/mol)
C       -0.3262272000   -1.4328613374   -1.3396194363
C       -0.3996561787   -0.4614796476   -0.6426425250
H       -0.3220360201    0.3686559537    0.0415401251
H       -0.2354759760   -2.2976867053   -1.9232616069
C        0.4332452209    1.5596498123    1.5146642305
N        0.8501501536    2.2637219237    2.3493192113
6    
Image 3/11, Energy =  -169.0463434761 (+3.925 kcal/mol)
C       -0.2980291708   -1.4070552524   -1.2930396951
C       -0.5099253417   -0.3982510811   -0.6837990926
H       -0.5201611397    0.4629186437   -0.0460268116
H       -0.0712710529   -2.2982802370   -1.7923416951
C        0.4416788735    1.5241535522    1.4742280428
N        0.9577078308    2.1165143742    2.3409792511
6    
Image 4/11, Energy =  -169.0417744164 (+6.792 kcal/mol)
C       -0.2656771182   -1.3669713617   -1.2267599683
C       -0.6068674052   -0.3386605946   -0.7181327433
H       -0.7235856160    0.5539404567   -0.1526732239
H        0.0912888894   -2.2630633062   -1.6300943328
C        0.4490358345    1.4879973791    1.4144528567
N        1.0558054145    1.9267574261    2.3132074112
6    
Image 5/11, Energy =  -169.0365022307 (+10.100 kcal/mol)
C       -0.2310380861   -1.3078258894   -1.1433726265
C       -0.6859799984   -0.2791608104   -0.7417841881
H       -0.9199395318    0.6361974294   -0.2696773099
H        0.2456231421   -2.1901744171   -1.4363235212
C        0.4572345415    1.4460558203    1.3346634356
N        1.1340999317    1.6949078665    2.2564942097
6    
Image 6/11, Energy =  -169.0297139050 (+14.360 kcal/mol)
C       -0.2019151471   -1.2300866385   -1.0522516963
C       -0.7352311993   -0.2107978676   -0.7446938365
H       -1.0967742413    0.7086120740   -0.3873948690
H        0.3863609092   -2.0786658254   -1.2130402803
C        0.4663787065    1.3706872918    1.2365010320
N        1.1811809713    1.4402509644    2.1608796502
6    
Image 7/11, Energy =  -169.0166656872 (+22.548 kcal/mol)
C       -0.1986711394   -1.1562025370   -0.9890130340
C       -0.7215290889   -0.1217912869   -0.6903768683
H       -1.2388294800    0.7604479941   -0.4885910787
H        0.4996348694   -1.9332869285   -0.9901615065
C        0.4711678048    1.2136940954    1.1180283719
N        1.1882270336    1.2371386606    2.0401141157
6    
Image 8/11, Energy =  -168.9963292800 (+35.309 kcal/mol)
C       -0.2353850958   -1.1080363025   -0.9796410229
C       -0.6242565854   -0.0075202737   -0.5514363581
H       -1.3235261378    0.7777550149   -0.5584172740
H        0.5716140220   -1.7790538972   -0.8106884390
C        0.4587027145    0.9862700614    0.9870024921
N        1.1528510824    1.1305853940    1.9131806016
6    
Image 9/11, Energy =  -169.0130831604 (+24.796 kcal/mol)
C       -0.2647309507   -1.0811789719   -0.9914704251
C       -0.5123917063    0.0809431936   -0.3976315994
H       -1.3116386163    0.7769773737   -0.5598861193
H        0.5915404832   -1.7038493643   -0.7370806841
C        0.4107853231    0.8267905388    0.8872041040
N        1.0864354670    1.1003172268    1.7988647223
6    
Image 10/11, Energy =  -169.0437609544 (+5.545 kcal/mol)
C       -0.2721093513   -1.0384613434   -0.9953339881
C       -0.4664498990    0.1336943575   -0.3047184047
H       -1.3026915424    0.8069996864   -0.5503883163
H        0.6404231461   -1.5232274468   -0.5526624607
C        0.3524169885    0.6272448767    0.7650856657
N        1.0484106581    0.9937498643    1.6380174988
