6    
Image 0/11, Energy =  -169.0541225047 (+0.000 kcal/mol)
C       -0.3739981687   -1.4835649798   -1.4070811137
C       -0.1593894936   -0.6267231344   -0.5957044914
H        0.0347237090    0.1461263812    0.1365769974
H       -0.5620255952   -2.2351986645   -2.1185513169
C        0.4238299506    1.6832116562    1.5959377344
N        0.6368595980    2.5161487414    2.3888221955
6    
Image 1/11, Energy =  -169.0532705215 (+0.535 kcal/mol)
C       -0.3484051642   -1.4732317991   -1.3752248210
C       -0.2685162486   -0.5391569564   -0.6314777340
H       -0.1402801697    0.2756869616    0.0661598112
H       -0.4016666753   -2.3011313244   -2.0159783492
C        0.3925468504    1.6728995415    1.5465816122
N        0.7663214068    2.3649335773    2.4099394842
6    
Image 2/11, Energy =  -169.0510516855 (+1.927 kcal/mol)
C       -0.3192070411   -1.4547074484   -1.3336422222
C       -0.3774311696   -0.4597322001   -0.6695862217
H       -0.3193764344    0.3942196111   -0.0160039062
H       -0.2379274672   -2.3370740214   -1.8900285983
C        0.3687924822    1.6651124951    1.5011264179
N        0.8851496293    2.1921815649    2.4081345324
6    
Image 3/11, Energy =  -169.0476636074 (+4.053 kcal/mol)
C       -0.2871438691   -1.4223183567   -1.2792251122
C       -0.4809253312   -0.3885406433   -0.7083868782
H       -0.5042410072    0.5009002356   -0.1102134413
H       -0.0733960035   -2.3376012654   -1.7375917385
C        0.3593055131    1.6468051593    1.4568445915
N        0.9864006971    2.0007548720    2.3785725792
6    
Image 4/11, Energy =  -169.0432021695 (+6.853 kcal/mol)
C       -0.2533813096   -1.3761813458   -1.2087350126
C       -0.5751971278   -0.3218903729   -0.7459600617
H       -0.6946924583    0.5947881160   -0.2152981920
H        0.0889508470   -2.2990166465   -1.5611783376
C        0.3666086559    1.6034154294    1.4077186961
N        1.0677113924    1.7988848214    2.3234529073
6    
Image 5/11, Energy =  -169.0374711852 (+10.449 kcal/mol)
C       -0.2203840915   -1.3120234656   -1.1279234127
C       -0.6569706326   -0.2582669511   -0.7727636483
H       -0.8870520555    0.6755502291   -0.3298667708
H        0.2457153535   -2.2181946651   -1.3608680154
C        0.3896473119    1.5159084414    1.3431124833
N        1.1290441142    1.5970264126    2.2483093628
6    
Image 6/11, Energy =  -169.0291778322 (+15.653 kcal/mol)
C       -0.1975685178   -1.2311443486   -1.0478516802
C       -0.7127071185   -0.1898230187   -0.7735602494
H       -1.0761809065    0.7410790794   -0.4498133154
H        0.3939946095   -2.0879675750   -1.1339323074
C        0.4229565969    1.3658736424    1.2520802283
N        1.1695053371    1.4019822217    2.1530773225
6    
Image 7/11, Energy =  -169.0128096750 (+25.924 kcal/mol)
C       -0.2070023183   -1.1590732244   -1.0027670771
C       -0.6962313280   -0.1011665777   -0.7036227168
H       -1.2327464819    0.7800844669   -0.5577862133
H        0.5122366055   -1.9131694075   -0.9044305494
C        0.4496393284    1.1439877463    1.1290671003
N        1.1741041959    1.2493369974    2.0395394546
6    
Image 8/11, Energy =  -168.9961756067 (+36.362 kcal/mol)
C       -0.2463775480   -1.1182676595   -1.0083956558
C       -0.5960751099    0.0052313533   -0.5478509260
H       -1.3069647708    0.7831777646   -0.6199620449
H        0.5738192237   -1.7509499486   -0.7370291559
C        0.4487947928    0.9136759433    0.9999224297
N        1.1268034147    1.1671325477    1.9133153511
6    
Image 9/11, Energy =  -169.0188879406 (+22.110 kcal/mol)
C       -0.2647223816   -1.0849968171   -1.0060580302
C       -0.4889339704    0.0898015510   -0.3952187682
H       -1.2831203546    0.7826968978   -0.6142865085
H        0.5855360386   -1.6939333222   -0.6763302970
C        0.3974674255    0.7856491047    0.8913896321
N        1.0537732454    1.1207825866    1.8005039707
6    
Image 10/11, Energy =  -169.0450280987 (+5.707 kcal/mol)
C       -0.2621558455   -1.0375648643   -0.9849831972
C       -0.4394724183    0.1448813965   -0.3146451553
H       -1.2369288594    0.8199852189   -0.5927880212
H        0.6030705059   -1.5856678970   -0.5514840624
C        0.3482331706    0.6332965578    0.7796522209
N        0.9872534521    1.0250695880    1.6642482151
