6    
Image 0/11, Energy =  -169.0541225047 (+0.000 kcal/mol)
C       -0.3739981687   -1.4835649798   -1.4070811137
C       -0.1593894936   -0.6267231344   -0.5957044914
H        0.0347237090    0.1461263812    0.1365769974
H       -0.5620255952   -2.2351986645   -2.1185513169
C        0.4238299506    1.6832116562    1.5959377344
N        0.6368595980    2.5161487414    2.3888221955
6    
Image 1/11, Energy =  -169.0532882168 (+0.524 kcal/mol)
C       -0.3496229372   -1.4731679045   -1.3775669359
C       -0.2691827695   -0.5388408466   -0.6310724638
H       -0.1378125321    0.2749789088    0.0668728620
H       -0.4029782357   -2.3019336277   -2.0173592421
C        0.3979328858    1.6676060055    1.5499909818
N        0.7616635879    2.3713574652    2.4091348014
6    
Image 2/11, Energy =  -169.0510600180 (+1.922 kcal/mol)
C       -0.3233534437   -1.4549628602   -1.3365476906
C       -0.3781354927   -0.4586972542   -0.6729136193
H       -0.3153695506    0.3917639925   -0.0130959610
H       -0.2394765174   -2.3386949677   -1.8930984955
C        0.3796134211    1.6539065911    1.5066468890
N        0.8767215822    2.2066844996    2.4090088789
6    
Image 3/11, Energy =  -169.0476693805 (+4.049 kcal/mol)
C       -0.2928310355   -1.4257789131   -1.2810366245
C       -0.4824137655   -0.3862394555   -0.7161976616
H       -0.4997874377    0.4966914308   -0.1055537204
H       -0.0749362178   -2.3398014054   -1.7435864823
C        0.3717062074    1.6339636595    1.4616063033
N        0.9782622483    2.0211646852    2.3847681860
6    
Image 4/11, Energy =  -169.0432144316 (+6.845 kcal/mol)
C       -0.2570336005   -1.3784625628   -1.2133124261
C       -0.5787144744   -0.3226891750   -0.7513101740
H       -0.6897974355    0.5907842113   -0.2109525111
H        0.0867673487   -2.3022197423   -1.5667227066
C        0.3777833678    1.5938489602    1.4088049735
N        1.0609947933    1.8187383101    2.3334928437
6    
Image 5/11, Energy =  -169.0376292872 (+10.350 kcal/mol)
C       -0.2205622282   -1.3134122603   -1.1324861671
C       -0.6598528712   -0.2619863507   -0.7758718235
H       -0.8801148834    0.6703194230   -0.3232852397
H        0.2408360449   -2.2225407516   -1.3672559377
C        0.3979301711    1.5173016012    1.3423926407
N        1.1217637664    1.6103183398    2.2565065259
6    
Image 6/11, Energy =  -169.0297073126 (+15.321 kcal/mol)
C       -0.1953767352   -1.2352278042   -1.0496674019
C       -0.7122178328   -0.1946377768   -0.7754267528
H       -1.0648906732    0.7352054381   -0.4401083318
H        0.3843593304   -2.0971870044   -1.1485963446
C        0.4274465125    1.3754199403    1.2515374744
N        1.1606793987    1.4164272082    2.1622613551
6    
Image 7/11, Energy =  -169.0136512021 (+25.396 kcal/mol)
C       -0.2041910249   -1.1598603124   -1.0000319587
C       -0.6990902471   -0.1062648606   -0.7074177096
H       -1.2275279299    0.7772440096   -0.5531050660
H        0.5072059711   -1.9208231742   -0.9150646142
C        0.4549947008    1.1551389663    1.1276902411
N        1.1686085315    1.2545653723    2.0479291056
6    
Image 8/11, Energy =  -168.9961802055 (+36.359 kcal/mol)
C       -0.2476257764   -1.1163461769   -1.0036770074
C       -0.5962459486    0.0118846715   -0.5459574018
H       -1.3169548956    0.7796635017   -0.6282776440
H        0.5784843681   -1.7356640920   -0.7233146780
C        0.4550872545    0.9073337911    0.9891799969
N        1.1272550005    1.1531283053    1.9120467325
6    
Image 9/11, Energy =  -169.0172241975 (+23.154 kcal/mol)
C       -0.2617244573   -1.0863099227   -0.9993415007
C       -0.4998327506    0.0900746721   -0.4071745717
H       -1.2956642970    0.7847630288   -0.6197500109
H        0.5920305616   -1.6844280926   -0.6675274618
C        0.4052397008    0.7856025550    0.8900376655
N        1.0599512458    1.1102977599    1.8037558781
6    
Image 10/11, Energy =  -169.0450280987 (+5.707 kcal/mol)
C       -0.2621558455   -1.0375648643   -0.9849831972
C       -0.4394724183    0.1448813965   -0.3146451553
H       -1.2369288594    0.8199852189   -0.5927880212
H        0.6030705059   -1.5856678970   -0.5514840624
C        0.3482331706    0.6332965578    0.7796522209
N        0.9872534521    1.0250695880    1.6642482151
