6    
Image 0/11, Energy =  -169.0541225047 (+0.000 kcal/mol)
C       -0.3739981687   -1.4835649798   -1.4070811137
C       -0.1593894936   -0.6267231344   -0.5957044914
H        0.0347237090    0.1461263812    0.1365769974
H       -0.5620255952   -2.2351986645   -2.1185513169
C        0.4238299506    1.6832116562    1.5959377344
N        0.6368595980    2.5161487414    2.3888221955
6    
Image 1/11, Energy =  -169.0531902395 (+0.585 kcal/mol)
C       -0.3442054587   -1.4727494351   -1.3689880336
C       -0.2680237171   -0.5352608935   -0.6275646596
H       -0.1464591269    0.2848374178    0.0649526738
H       -0.3958455476   -2.3005374940   -2.0094636285
C        0.3746978280    1.6816392179    1.5337795683
N        0.7798360222    2.3420711873    2.4072840834
6    
Image 2/11, Energy =  -169.0508624014 (+2.046 kcal/mol)
C       -0.3122432479   -1.4520178702   -1.3212584117
C       -0.3759561751   -0.4524198026   -0.6651817061
H       -0.3303915890    0.4086901545   -0.0188857012
H       -0.2274960224   -2.3351305161   -1.8769882959
C        0.3402945250    1.6818661810    1.4864343940
N        0.9057925092    2.1490118542    2.3958797231
6    
Image 3/11, Energy =  -169.0473697274 (+4.237 kcal/mol)
C       -0.2780863636   -1.4169671530   -1.2617405743
C       -0.4805004915   -0.3770159817   -0.7057808375
H       -0.5206652819    0.5181564714   -0.1160939706
H       -0.0583793070   -2.3326869819   -1.7179097574
C        0.3280292497    1.6642818013    1.4472597239
N        1.0096021942    1.9442318448    2.3542654170
6    
Image 4/11, Energy =  -169.0426587618 (+7.194 kcal/mol)
C       -0.2424433943   -1.3646492070   -1.1897427799
C       -0.5792263460   -0.3073025101   -0.7451469712
H       -0.7188288174    0.6136617443   -0.2272541763
H        0.1094009215   -2.2884580519   -1.5314555338
C        0.3386454225    1.6094597198    1.4037489208
N        1.0924522141    1.7372883058    2.2898505404
6    
Image 5/11, Energy =  -169.0366027137 (+10.994 kcal/mol)
C       -0.2088426489   -1.2948382290   -1.1090362260
C       -0.6635735636   -0.2423138680   -0.7739770989
H       -0.9166793457    0.6924799136   -0.3480758432
H        0.2683555697   -2.2000077405   -1.3233865714
C        0.3663530506    1.5035596394    1.3446484764
N        1.1543869391    1.5411202856    2.2098272624
6    
Image 6/11, Energy =  -169.0280570815 (+16.356 kcal/mol)
C       -0.1884344051   -1.2160440337   -1.0341787001
C       -0.7140913320   -0.1765304895   -0.7721626323
H       -1.0967911887    0.7518400072   -0.4661606126
H        0.4079777155   -2.0708620611   -1.1072459235
C        0.4011098259    1.3359523353    1.2582838792
N        1.1902293862    1.3756442425    2.1214639880
6    
Image 7/11, Energy =  -169.0121782490 (+26.320 kcal/mol)
C       -0.2016052555   -1.1529954304   -0.9998924925
C       -0.6937281377   -0.0969552476   -0.6998208788
H       -1.2328068659    0.7846605257   -0.5623455028
H        0.5114979706   -1.9137788932   -0.9054912791
C        0.4324756027    1.1198891911    1.1425357304
N        1.1841666881    1.2591798552    2.0250144211
6    
Image 8/11, Energy =  -168.9962144128 (+36.338 kcal/mol)
C       -0.2428493331   -1.1177146619   -1.0088370354
C       -0.5989899752    0.0006117886   -0.5503326630
H       -1.3001075805    0.7868080910   -0.6172396416
H        0.5690044414   -1.7633688815   -0.7499186207
C        0.4440856191    0.9091544879    1.0117607768
N        1.1288568307    1.1845091767    1.9145671822
6    
Image 9/11, Energy =  -169.0180301512 (+22.648 kcal/mol)
C       -0.2621619611   -1.0847069640   -1.0066651385
C       -0.4908037803    0.0858739830   -0.3955623916
H       -1.2785604436    0.7876070923   -0.6100187924
H        0.5820686725   -1.7057900675   -0.6886779642
C        0.3963070517    0.7821837595    0.8999781222
N        1.0531504641    1.1348321972    1.8009461632
6    
Image 10/11, Energy =  -169.0450280987 (+5.707 kcal/mol)
C       -0.2621558455   -1.0375648643   -0.9849831972
C       -0.4394724183    0.1448813965   -0.3146451553
H       -1.2369288594    0.8199852189   -0.5927880212
H        0.6030705059   -1.5856678970   -0.5514840624
C        0.3482331706    0.6332965578    0.7796522209
N        0.9872534521    1.0250695880    1.6642482151
