6    
Image 0/11, Energy =  -169.0541225045 (+0.000 kcal/mol)
C       -0.3739980946   -1.4835648899   -1.4070811401
C       -0.1593895200   -0.6267231503   -0.5957044173
H        0.0347236084    0.1461263812    0.1365770556
H       -0.5620254788   -2.2351985057   -2.1185514228
C        0.4238299135    1.6832114869    1.5959377979
N        0.6368595768    2.5161486779    2.3888221215
6    
Image 1/11, Energy =  -169.0534977907 (+0.392 kcal/mol)
C       -0.3522029952   -1.4812995497   -1.3849628287
C       -0.2571265349   -0.5496088760   -0.6357323783
H       -0.1283198959    0.2655733308    0.0639216653
H       -0.4206866924   -2.3070009169   -2.0321054633
C        0.3807001528    1.6936629835    1.5641280362
N        0.7776359702    2.3786730283    2.4247509734
6    
Image 2/11, Energy =  -169.0504566392 (+2.300 kcal/mol)
C       -0.3030863188   -1.4612565577   -1.3213616681
C       -0.3929255089   -0.4479945261   -0.6869461507
H       -0.3861535931    0.4283612292   -0.0596303564
H       -0.1938957838   -2.3587877583   -1.8577805202
C        0.2966739148    1.7561256295    1.5166707229
N        0.9793872897    2.0835519834    2.4090479768
6    
Image 3/11, Energy =  -169.0461961395 (+4.974 kcal/mol)
C       -0.2555735100   -1.4112807076   -1.2332394466
C       -0.5008136718   -0.3586395902   -0.7171115328
H       -0.6072797804    0.5584820421   -0.1735700027
H        0.0018847647   -2.3404356492   -1.6513201324
C        0.2623887429    1.7810647487    1.4780298170
N        1.0993934532    1.7708091548    2.2972113027
6    
Image 4/11, Energy =  -169.0408788597 (+8.311 kcal/mol)
C       -0.2112359104   -1.3479500590   -1.1367200835
C       -0.6165021876   -0.2872027191   -0.7601767493
H       -0.8565100290    0.6531159424   -0.3265371364
H        0.1963904421   -2.2744912508   -1.4183146268
C        0.3048358586    1.7679420801    1.4589503430
N        1.1830218239    1.4885860041    2.1827982557
6    
Image 5/11, Energy =  -169.0358012601 (+11.497 kcal/mol)
C       -0.1782811134   -1.2708477530   -1.0438602877
C       -0.7137162312   -0.2311526632   -0.7979699521
H       -1.0761233400    0.7081625373   -0.4754777145
H        0.3508661780   -2.1655150871   -1.1952533797
C        0.3672857000    1.6947382252    1.4358466109
N        1.2499688049    1.2646147392    2.0767147261
6    
Image 6/11, Energy =  -169.0301471444 (+15.045 kcal/mol)
C       -0.1572782934   -1.1702231989   -0.9631608827
C       -0.7955627068   -0.1694241310   -0.8343535265
H       -1.2656150770    0.7473224827   -0.6136925410
H        0.4834471133   -2.0022109796   -0.9716147587
C        0.3947633200    1.4577729248    1.3839583747
N        1.3402456434    1.1367629015    1.9988633381
6    
Image 7/11, Energy =  -169.0169825905 (+23.306 kcal/mol)
C       -0.1717696822   -1.1191018300   -0.9517318765
C       -0.7644132160   -0.0972309215   -0.7557081462
H       -1.3108141017    0.7857672705   -0.6181832167
H        0.5544209880   -1.8659419192   -0.8293281297
C        0.4002117454    1.1527177683    1.1992107933
N        1.2923642662    1.1437896316    1.9557405796
6    
Image 8/11, Energy =  -168.9961993402 (+36.347 kcal/mol)
C       -0.2424951551   -1.1111318858   -1.0066158838
C       -0.6098446241    0.0022461687   -0.5439833478
H       -1.3127455951    0.7861857411   -0.6187618373
H        0.5678832311   -1.7540351862   -0.7364121036
C        0.4257564361    0.9017144620    1.0258970201
N        1.1714457068    1.1750206999    1.8798761564
6    
Image 9/11, Energy =  -169.0403355323 (+8.651 kcal/mol)
C       -0.2707369038   -1.0509709258   -0.9872616449
C       -0.4416479548    0.1263605942   -0.3062725734
H       -1.2644543845    0.7796938959   -0.5807111642
H        0.5873676419   -1.6699530370   -0.6576750172
C        0.3657970844    0.7059723608    0.8288579737
N        1.0236745164    1.1088971116    1.7030624302
6    
Image 10/11, Energy =  -169.0450280987 (+5.707 kcal/mol)
C       -0.2621558296   -1.0375648219   -0.9849832395
C       -0.4394879656    0.1448698023   -0.3146287985
H       -1.2369759986    0.8199500286   -0.5927383420
H        0.6031032673   -1.5856434332   -0.5515185912
C        0.3482393197    0.6333011299    0.7796457597
N        0.9872772121    1.0250872943    1.6642232062
