6    
Image 0/11, Energy =  -169.0541225047 (+0.000 kcal/mol)
C       -0.3739981687   -1.4835649798   -1.4070811137
C       -0.1593894936   -0.6267231344   -0.5957044914
H        0.0347237090    0.1461263812    0.1365769974
H       -0.5620255952   -2.2351986645   -2.1185513169
C        0.4238299506    1.6832116562    1.5959377344
N        0.6368595980    2.5161487414    2.3888221955
6    
Image 1/11, Energy =  -169.0532803674 (+0.528 kcal/mol)
C       -0.3484884792   -1.4732911731   -1.3763993156
C       -0.2690105940   -0.5391431985   -0.6312593253
H       -0.1394246751    0.2752391948    0.0660950812
H       -0.4022573188   -2.3013169890   -2.0161942471
C        0.3941458933    1.6710382148    1.5476032105
N        0.7650351731    2.3674739515    2.4101545999
6    
Image 2/11, Energy =  -169.0510522630 (+1.927 kcal/mol)
C       -0.3198921682   -1.4542933128   -1.3344579633
C       -0.3782697996   -0.4601192874   -0.6705900823
H       -0.3178541667    0.3933902649   -0.0153065263
H       -0.2386637613   -2.3374711805   -1.8909630741
C        0.3723210009    1.6619306168    1.5031243651
N        0.8823588939    2.1965629002    2.4081932827
6    
Image 3/11, Energy =  -169.0476656101 (+4.052 kcal/mol)
C       -0.2885917387   -1.4224870038   -1.2797719566
C       -0.4816567971   -0.3889305783   -0.7107177847
H       -0.5025429712    0.4993598367   -0.1090218762
H       -0.0741469659   -2.3380410440   -1.7392607353
C        0.3633185434    1.6432013038    1.4585729154
N        0.9836199289    2.0068974871    2.3801994379
6    
Image 4/11, Energy =  -169.0432089227 (+6.848 kcal/mol)
C       -0.2544822767   -1.3767699116   -1.2099338532
C       -0.5761128696   -0.3225192954   -0.7478163491
H       -0.6930232709    0.5930674934   -0.2141570963
H        0.0879751834   -2.2995726433   -1.5628498617
C        0.3700460259    1.6007932550    1.4082125798
N        1.0655972074    1.8050011033    2.3265445800
6    
Image 5/11, Energy =  -169.0375372711 (+10.407 kcal/mol)
C       -0.2202665039   -1.3130074758   -1.1291944141
C       -0.6578606227   -0.2592454608   -0.7737567759
H       -0.8844863687    0.6737933276   -0.3276577474
H        0.2437953286   -2.2197009692   -1.3635198809
C        0.3924313253    1.5163630544    1.3432524181
N        1.1263868414    1.6017975250    2.2508763989
6    
Image 6/11, Energy =  -169.0293663327 (+15.535 kcal/mol)
C       -0.1967329594   -1.2323270306   -1.0480250102
C       -0.7132068876   -0.1915092077   -0.7744889427
H       -1.0726043828    0.7395457054   -0.4467976423
H        0.3912255517   -2.0909651577   -1.1386585213
C        0.4245220267    1.3688777507    1.2518406707
N        1.1667966521    1.4063779411    2.1561294441
6    
Image 7/11, Energy =  -169.0130434756 (+25.777 kcal/mol)
C       -0.2062443427   -1.1593959441   -1.0019829225
C       -0.6976145352   -0.1023367754   -0.7048715970
H       -1.2320340257    0.7795914953   -0.5569608379
H        0.5115054721   -1.9147193690   -0.9063560933
C        0.4517005119    1.1471160702    1.1284429141
N        1.1726869211    1.2497445240    2.0417285348
6    
Image 8/11, Energy =  -168.9961767513 (+36.362 kcal/mol)
C       -0.2472363278   -1.1179087099   -1.0078721122
C       -0.5957209515    0.0069707055   -0.5470039058
H       -1.3098269360    0.7820772223   -0.6222233743
H        0.5753227035   -1.7464872969   -0.7327006524
C        0.4502951233    0.9124802846    0.9965065687
N        1.1271663909    1.1628677951    1.9132934741
6    
Image 9/11, Energy =  -169.0185148585 (+22.344 kcal/mol)
C       -0.2644051263   -1.0853894123   -1.0049164485
C       -0.4916368011    0.0894987199   -0.3981333124
H       -1.2855907043    0.7819280805   -0.6161882406
H        0.5869130728   -1.6891461340   -0.6725281220
C        0.3991795558    0.7866215214    0.8912312124
N        1.0555400061    1.1164872251    1.8005349099
6    
Image 10/11, Energy =  -169.0450280987 (+5.707 kcal/mol)
C       -0.2621558455   -1.0375648643   -0.9849831972
C       -0.4394724183    0.1448813965   -0.3146451553
H       -1.2369288594    0.8199852189   -0.5927880212
H        0.6030705059   -1.5856678970   -0.5514840624
C        0.3482331706    0.6332965578    0.7796522209
N        0.9872534521    1.0250695880    1.6642482151
