6    
Image 0/11, Energy =  -169.0541225047 (+0.000 kcal/mol)
C       -0.3739981687   -1.4835649798   -1.4070811137
C       -0.1593894936   -0.6267231344   -0.5957044914
H        0.0347237090    0.1461263812    0.1365769974
H       -0.5620255952   -2.2351986645   -2.1185513169
C        0.4238299506    1.6832116562    1.5959377344
N        0.6368595980    2.5161487414    2.3888221955
6    
Image 1/11, Energy =  -168.9764445610 (+48.744 kcal/mol)
C       -0.3536507262   -1.4003449160   -1.3382327633
C       -0.3158508147   -0.5762310887   -0.5934397857
H       -0.0434796504    0.3424148057    0.0858828994
H       -0.4096844996   -2.2970031749   -2.0322880612
C        0.4405296633    1.5980099688    1.5837037876
N        0.6821360323    2.3331544051    2.2943739234
6    
Image 2/11, Energy =  -169.0047694145 (+30.970 kcal/mol)
C       -0.3191945188   -1.4028925976   -1.3334588141
C       -0.4128079484   -0.4837629131   -0.6261702486
H       -0.2320879491    0.4652392415   -0.0458178701
H       -0.2730090131   -2.3416972945   -1.9041978128
C        0.4811120578    1.4930178917    1.6188000459
N        0.7559873763    2.2700956717    2.2908446995
6    
Image 3/11, Energy =  -169.0078906682 (+29.011 kcal/mol)
C       -0.2958597393   -1.3870932210   -1.3038917487
C       -0.4471775586   -0.3973713783   -0.6875476132
H       -0.4502899677    0.5254732388   -0.1111805630
H       -0.1483544315   -2.3448195263   -1.7692995618
C        0.5349309145    1.4227624601    1.5890047545
N        0.8067507779    2.1810484223    2.2829147274
6    
Image 4/11, Energy =  -168.9615248440 (+58.106 kcal/mol)
C       -0.2962520143   -1.3082087109   -1.2263649189
C       -0.4725674322   -0.3738813231   -0.6866583190
H       -0.7062079489    0.6371875049   -0.2094611995
H        0.0438841197   -2.3141589376   -1.6002467495
C        0.5105559918    1.4083151002    1.4533742736
N        0.9205872787    1.9507463712    2.2693569130
6    
Image 5/11, Energy =  -168.9647241187 (+56.098 kcal/mol)
C       -0.2790757740   -1.2674412169   -1.1564573633
C       -0.5282255630   -0.2788507898   -0.6874460262
H       -0.9669327075    0.7202669224   -0.3471194792
H        0.2433083892   -2.2572031645   -1.3949594122
C        0.5047662030    1.3724857495    1.3620512591
N        1.0261594472    1.7107425046    2.2239310218
6    
Image 6/11, Energy =  -168.9643161767 (+56.354 kcal/mol)
C       -0.2650918417   -1.2295609870   -1.0733492184
C       -0.5684713543   -0.1883050635   -0.6937590504
H       -1.1666192153    0.7670107142   -0.4460572738
H        0.4047958018   -2.1623187911   -1.2069971856
C        0.5116695884    1.3155256928    1.2705964463
N        1.0837170210    1.4976484397    2.1495662819
6    
Image 7/11, Energy =  -168.9623833516 (+57.567 kcal/mol)
C       -0.2513704647   -1.1809202749   -0.9821318070
C       -0.6021478047   -0.1167650450   -0.6183699997
H       -1.2718908586    0.8046963831   -0.5469448974
H        0.5324320617   -2.0154123193   -1.0324344470
C        0.4947639140    1.2324915986    1.1519966864
N        1.0982131570    1.2759096577    2.0278844645
6    
Image 8/11, Energy =  -168.9565394358 (+61.234 kcal/mol)
C       -0.2494124819   -1.1378203712   -0.8815803405
C       -0.6039678411   -0.0084206302   -0.5076944022
H       -1.3364053255    0.8263389300   -0.6287872800
H        0.6495321341   -1.8145217281   -0.8372995134
C        0.4568271960    1.0956442570    0.9986738369
N        1.0834263184    1.0387795427    1.8566876945
6    
Image 9/11, Energy =  -168.9813652562 (+45.656 kcal/mol)
C       -0.2598336561   -1.1148269779   -0.8852051685
C       -0.5339848895    0.1235826375   -0.3816840900
H       -1.3158419446    0.8339497725   -0.6598883995
H        0.6842174973   -1.6395906308   -0.6447136890
C        0.3856762548    0.8545253463    0.8707024033
N        1.0397667340    0.9423598567    1.7007889431
6    
Image 10/11, Energy =  -169.0450280987 (+5.707 kcal/mol)
C       -0.2621558455   -1.0375648643   -0.9849831972
C       -0.4394724183    0.1448813965   -0.3146451553
H       -1.2369288594    0.8199852189   -0.5927880212
H        0.6030705059   -1.5856678970   -0.5514840624
C        0.3482331706    0.6332965578    0.7796522209
N        0.9872534521    1.0250695880    1.6642482151
