6    
Image 0/11, Energy =  -169.0541225047 (+0.000 kcal/mol)
C       -0.3739981687   -1.4835649798   -1.4070811137
C       -0.1593894936   -0.6267231344   -0.5957044914
H        0.0347237090    0.1461263812    0.1365769974
H       -0.5620255952   -2.2351986645   -2.1185513169
C        0.4238299506    1.6832116562    1.5959377344
N        0.6368595980    2.5161487414    2.3888221955
6    
Image 1/11, Energy =  -169.0530952342 (+0.645 kcal/mol)
C       -0.3514490078   -1.4659447970   -1.3803447955
C       -0.2673771194   -0.5330834876   -0.6322417902
H       -0.1229407450    0.2719765189    0.0709340740
H       -0.4141340881   -2.2971751586   -2.0148634975
C        0.4240508943    1.6267956691    1.5664792528
N        0.7318500658    2.3974312550    2.3900367588
6    
Image 2/11, Energy =  -169.0504178114 (+2.325 kcal/mol)
C       -0.3244615395   -1.4447052172   -1.3412347833
C       -0.3770337499   -0.4510595340   -0.6750481378
H       -0.2939148641    0.3899317104   -0.0074510384
H       -0.2581430868   -2.3329473756   -1.8921953327
C        0.4235386627    1.5784932992    1.5287199730
N        0.8300145770    2.2602871177    2.3872093197
6    
Image 3/11, Energy =  -169.0465813597 (+4.732 kcal/mol)
C       -0.2950853298   -1.4159939588   -1.2887690000
C       -0.4812775383   -0.3798901835   -0.7181483450
H       -0.4814656424    0.4960416244   -0.1012973273
H       -0.0953588856   -2.3354096656   -1.7466473672
C        0.4262692427    1.5359230971    1.4798911682
N        0.9269181523    2.0993290877    2.3749708707
6    
Image 4/11, Energy =  -169.0419617147 (+7.631 kcal/mol)
C       -0.2625530468   -1.3756859185   -1.2198564286
C       -0.5765580028   -0.3196050187   -0.7522625015
H       -0.6801703170    0.5893193473   -0.2108643638
H        0.0697446855   -2.2994397553   -1.5792693094
C        0.4319664217    1.4976457564    1.4179423904
N        1.0175702579    1.9077655909    2.3443102120
6    
Image 5/11, Energy =  -169.0366415570 (+10.969 kcal/mol)
C       -0.2268303396   -1.3167266679   -1.1355870850
C       -0.6582581644   -0.2643887928   -0.7727900534
H       -0.8793797873    0.6664995405   -0.3252351075
H        0.2307152645   -2.2219404305   -1.3870562822
C        0.4409188924    1.4544029970    1.3376306123
N        1.0928341330    1.6821533559    2.2830379146
6    
Image 6/11, Energy =  -169.0297484630 (+15.295 kcal/mol)
C       -0.1951244457   -1.2384079191   -1.0450593492
C       -0.7127939757   -0.2032122335   -0.7690344623
H       -1.0657286124    0.7279799536   -0.4337775973
H        0.3801864432   -2.1022361905   -1.1703737507
C        0.4518406111    1.3775657138    1.2371438638
N        1.1416199786    1.4383106781    2.1811012942
6    
Image 7/11, Energy =  -169.0165283053 (+23.591 kcal/mol)
C       -0.1894343462   -1.1647647150   -0.9838401537
C       -0.7022790814   -0.1192929052   -0.7078183013
H       -1.2142814917    0.7704185157   -0.5271846526
H        0.4968141287   -1.9522801560   -0.9566372155
C        0.4582194688    1.2168128779    1.1178347484
N        1.1509613221    1.2491063845    2.0576455730
6    
Image 8/11, Energy =  -168.9962708074 (+36.302 kcal/mol)
C       -0.2249834113   -1.1167488034   -0.9765491722
C       -0.6069686386   -0.0068294280   -0.5635883334
H       -1.2992577683    0.7840733751   -0.5941954556
H        0.5676285470   -1.7987559832   -0.7845570659
C        0.4477783848    0.9863072098    0.9886126951
N        1.1158028880    1.1519536308    1.9302773301
6    
Image 9/11, Energy =  -169.0119654526 (+26.454 kcal/mol)
C       -0.2535151670   -1.0897948957   -0.9880989646
C       -0.4982500816    0.0792742894   -0.4131110913
H       -1.2807493425    0.7859716990   -0.5973070503
H        0.5804459555   -1.7327591409   -0.7169674626
C        0.4023548419    0.8345025264    0.8944898489
N        1.0497137958    1.1228055229    1.8209947187
6    
Image 10/11, Energy =  -169.0450280987 (+5.707 kcal/mol)
C       -0.2621558455   -1.0375648643   -0.9849831972
C       -0.4394724183    0.1448813965   -0.3146451553
H       -1.2369288594    0.8199852189   -0.5927880212
H        0.6030705059   -1.5856678970   -0.5514840624
C        0.3482331706    0.6332965578    0.7796522209
N        0.9872534521    1.0250695880    1.6642482151
