6    
Image 0/11, Energy =  -169.0541225047 (+0.000 kcal/mol)
C       -0.3739981687   -1.4835649798   -1.4070811137
C       -0.1593894936   -0.6267231344   -0.5957044914
H        0.0347237090    0.1461263812    0.1365769974
H       -0.5620255952   -2.2351986645   -2.1185513169
C        0.4238299506    1.6832116562    1.5959377344
N        0.6368595980    2.5161487414    2.3888221955
6    
Image 1/11, Energy =  -169.0529554420 (+0.732 kcal/mol)
C       -0.3521230678   -1.4663814478   -1.3790682187
C       -0.2626004010   -0.5278961777   -0.6375863790
H       -0.1200173519    0.2768218460    0.0773303777
H       -0.4200713502   -2.2967529419   -2.0153414363
C        0.4351130734    1.6078417581    1.5752054686
N        0.7196990984    2.4063669629    2.3794601898
6    
Image 2/11, Energy =  -169.0499005341 (+2.649 kcal/mol)
C       -0.3283549882   -1.4438032394   -1.3359039937
C       -0.3675985678   -0.4419493384   -0.6806208639
H       -0.2865856207    0.3928130938    0.0033961422
H       -0.2669588151   -2.3279202905   -1.8938908785
C        0.4444602918    1.5415774705    1.5371017488
N        0.8050377000    2.2792823038    2.3699178446
6    
Image 3/11, Energy =  -169.0458250973 (+5.207 kcal/mol)
C       -0.2959831049   -1.4184297644   -1.2786112159
C       -0.4753514940   -0.3713225461   -0.7255578753
H       -0.4727316238    0.4989418762   -0.0938130864
H       -0.1057868130   -2.3297965136   -1.7529701411
C        0.4488332902    1.4930935503    1.4890654388
N        0.9010197442    2.1275133988    2.3618868790
6    
Image 4/11, Energy =  -169.0410730199 (+8.189 kcal/mol)
C       -0.2552071754   -1.3741421722   -1.2100600337
C       -0.5780082007   -0.3166131307   -0.7609406055
H       -0.6787413691    0.5947377509   -0.2090126398
H        0.0593542251   -2.2987940363   -1.5861000551
C        0.4568717805    1.4528707464    1.4260848423
N        0.9957307369    1.9419408438    2.3400284905
6    
Image 5/11, Energy =  -169.0359259197 (+11.419 kcal/mol)
C       -0.2123549734   -1.3151198312   -1.1255798233
C       -0.6660352709   -0.2616911472   -0.7754250017
H       -0.8832815947    0.6730055049   -0.3236802397
H        0.2222950468   -2.2272773823   -1.3995617582
C        0.4613456440    1.4198310584    1.3369855137
N        1.0780311463    1.7112518004    2.2872613084
6    
Image 6/11, Energy =  -169.0295077969 (+15.446 kcal/mol)
C       -0.1828263620   -1.2373115525   -1.0303434801
C       -0.7219774055   -0.2033812694   -0.7656027488
H       -1.0736763167    0.7376261419   -0.4350451442
H        0.3806247577   -2.1107073552   -1.1867263460
C        0.4642890539    1.3622966290    1.2306317074
N        1.1335662719    1.4514774090    2.1870860105
6    
Image 7/11, Energy =  -169.0169677888 (+23.315 kcal/mol)
C       -0.1825450936   -1.1614636347   -0.9686221678
C       -0.7120894974   -0.1235155632   -0.6998644131
H       -1.2232427926    0.7797080006   -0.5307946744
H        0.5086326928   -1.9561871308   -0.9621473573
C        0.4610526844    1.2307956958    1.1075722897
N        1.1481920062    1.2306626344    2.0538563210
6    
Image 8/11, Energy =  -168.9967340580 (+36.012 kcal/mol)
C       -0.2177693713   -1.1214308911   -0.9699584273
C       -0.6138759082   -0.0159270192   -0.5627960107
H       -1.2906377520    0.7836523026   -0.5849496519
H        0.5657106283   -1.8197726229   -0.8075563683
C        0.4415886507    1.0309696800    0.9891420504
N        1.1149837535    1.1425085519    1.9361184056
6    
Image 9/11, Energy =  -169.0136822626 (+25.377 kcal/mol)
C       -0.2554618611   -1.0882477768   -0.9862449605
C       -0.4915610791    0.0864030479   -0.3980744940
H       -1.2841109042    0.7858035525   -0.5939080440
H        0.5884642071   -1.7391181296   -0.7213690516
C        0.3960743832    0.8417519052    0.8838741437
N        1.0465952563    1.1134074015    1.8157224046
6    
Image 10/11, Energy =  -169.0450280987 (+5.707 kcal/mol)
C       -0.2621558455   -1.0375648643   -0.9849831972
C       -0.4394724183    0.1448813965   -0.3146451553
H       -1.2369288594    0.8199852189   -0.5927880212
H        0.6030705059   -1.5856678970   -0.5514840624
C        0.3482331706    0.6332965578    0.7796522209
N        0.9872534521    1.0250695880    1.6642482151
