6    
Image 0/11, Energy =  -169.0541225044 (+0.000 kcal/mol)
C       -0.3739982322   -1.4835652233   -1.4070810555
C       -0.1593894618   -0.6267230339   -0.5957045761
H        0.0347237301    0.1461266934    0.1365766693
H       -0.5620257434   -2.2351990296   -2.1185511794
C        0.4238300829    1.6832117250    1.5959378561
N        0.6368596244    2.5161488684    2.3888222855
6    
Image 1/11, Energy =  -169.0535253570 (+0.375 kcal/mol)
C       -0.3495453100   -1.4824210165   -1.3832314562
C       -0.2524841011   -0.5550989550   -0.6295707022
H       -0.1246087932    0.2609578629    0.0684319154
H       -0.4233236266   -2.3024556203   -2.0361111609
C        0.3744039016    1.7028208666    1.5563990804
N        0.7755579299    2.3761968616    2.4240823241
6    
Image 2/11, Energy =  -169.0517663518 (+1.479 kcal/mol)
C       -0.3209289497   -1.4694555125   -1.3427994544
C       -0.3444658764   -0.4813201995   -0.6644509929
H       -0.2915499956    0.3752753090   -0.0090379708
H       -0.2738723099   -2.3441488520   -1.9229894201
C        0.3216310667    1.7290354483    1.5198035877
N        0.9091860658    2.1906138057    2.4194742514
6    
Image 3/11, Energy =  -169.0489066837 (+3.273 kcal/mol)
C       -0.2850374304   -1.4394140097   -1.2841052313
C       -0.4367300601   -0.4074229236   -0.6944693381
H       -0.4676305687    0.4855893869   -0.0954224649
H       -0.1158717148   -2.3519923909   -1.7756801575
C        0.2829043001    1.7512866666    1.4840820583
N        1.0223654753    1.9619532695    2.3655951343
6    
Image 4/11, Energy =  -169.0449034412 (+5.785 kcal/mol)
C       -0.2448547771   -1.3905397264   -1.2068940170
C       -0.5335265944   -0.3328648728   -0.7259404491
H       -0.6616489226    0.5891597693   -0.1992200612
H        0.0542268586   -2.3206809555   -1.5905540176
C        0.2742993192    1.7425727875    1.4526041484
N        1.1115041172    1.7123529971    2.2700043972
6    
Image 5/11, Energy =  -169.0394999188 (+9.176 kcal/mol)
C       -0.2034810180   -1.3176303036   -1.1149582201
C       -0.6379516334   -0.2598325045   -0.7652731879
H       -0.8837665304    0.6785720376   -0.3327459570
H        0.2367063113   -2.2369120658   -1.3629485719
C        0.3016346815    1.6592350628    1.4154447892
N        1.1868581895    1.4765677735    2.1604811482
6    
Image 6/11, Energy =  -169.0321012799 (+13.819 kcal/mol)
C       -0.1698311680   -1.2190235547   -1.0176395717
C       -0.7334530119   -0.1888992465   -0.7987538329
H       -1.1152345159    0.7433806054   -0.4861224693
H        0.4137137796   -2.0857175364   -1.1026685152
C        0.3506786553    1.4653306424    1.3406174629
N        1.2541262611    1.2849290905    2.0645669264
6    
Image 7/11, Energy =  -169.0169244362 (+23.342 kcal/mol)
C       -0.1765141327   -1.1346334230   -0.9652372296
C       -0.7440943678   -0.1031654718   -0.7429514919
H       -1.2799856146    0.7833050868   -0.5959396873
H        0.5419225176   -1.8900698348   -0.8582976755
C        0.4024800374    1.1744895644    1.1815185924
N        1.2561915600    1.1700740794    1.9809074921
6    
Image 8/11, Energy =  -168.9961574546 (+36.374 kcal/mol)
C       -0.2355953510   -1.1101772373   -1.0037654249
C       -0.6129557261    0.0034686159   -0.5503846268
H       -1.3198063494    0.7835202625   -0.6277287248
H        0.5796638458   -1.7415617762   -0.7213553658
C        0.4219587727    0.9067626152    1.0207957617
N        1.1667348080    1.1579875210    1.8824383807
6    
Image 9/11, Energy =  -169.0161372888 (+23.836 kcal/mol)
C       -0.2570212986   -1.0816859149   -1.0033983907
C       -0.5023749588    0.0853011585   -0.3937789873
H       -1.2985896890    0.7760361832   -0.6183625258
H        0.5870385795   -1.7037451412   -0.6858386368
C        0.3873141094    0.7932581270    0.9122775055
N        1.0836332574    1.1308355886    1.7891010351
6    
Image 10/11, Energy =  -169.0450280988 (+5.707 kcal/mol)
C       -0.2621557661   -1.0375648484   -0.9849831760
C       -0.4394340900    0.1449100356   -0.3146855633
H       -1.2368126204    0.8200720516   -0.5929104463
H        0.6029896476   -1.5857282444   -0.5513988649
C        0.3482180203    0.6332852387    0.7796681386
N        0.9871948086    1.0250257668    1.6643099119
