6    
Image 0/11, Energy =  -169.0541225047 (+0.000 kcal/mol)
C       -0.3739981687   -1.4835649798   -1.4070811137
C       -0.1593894936   -0.6267231344   -0.5957044914
H        0.0347237090    0.1461263812    0.1365769974
H       -0.5620255952   -2.2351986645   -2.1185513169
C        0.4238299506    1.6832116562    1.5959377344
N        0.6368595980    2.5161487414    2.3888221955
6    
Image 1/11, Energy =  -169.0532070632 (+0.574 kcal/mol)
C       -0.3538688774   -1.4700348352   -1.3771471458
C       -0.2661905280   -0.5350046512   -0.6339207348
H       -0.1299336131    0.2723328134    0.0713286584
H       -0.4075609579   -2.2980240000   -2.0166247634
C        0.4133640118    1.6446443290    1.5575941462
N        0.7441899638    2.3860863441    2.3987698422
6    
Image 2/11, Energy =  -169.0507769689 (+2.099 kcal/mol)
C       -0.3278824451   -1.4501174927   -1.3402239766
C       -0.3753666795   -0.4548429163   -0.6768500710
H       -0.3044173172    0.3888239655   -0.0100322071
H       -0.2486226450   -2.3353981321   -1.8924656817
C        0.4055900432    1.6111068134    1.5200626080
N        0.8506990427    2.2404277631    2.3995093294
6    
Image 3/11, Energy =  -169.0471212723 (+4.393 kcal/mol)
C       -0.2967132478   -1.4195035897   -1.2903917552
C       -0.4813536157   -0.3857711612   -0.7160992865
H       -0.4896779425    0.4951405282   -0.1051780656
H       -0.0861750751   -2.3370898527   -1.7442441123
C        0.4045884183    1.5762463177    1.4725733109
N        0.9493314615    2.0709777589    2.3833399085
6    
Image 4/11, Energy =  -169.0426066962 (+7.226 kcal/mol)
C       -0.2636336237   -1.3765758322   -1.2215508918
C       -0.5766934177   -0.3242338849   -0.7511139925
H       -0.6827028132    0.5884210315   -0.2096347072
H        0.0771248802   -2.3001740901   -1.5740790214
C        0.4094707423    1.5400672512    1.4126517261
N        1.0364342311    1.8724955264    2.3437268859
6    
Image 5/11, Energy =  -169.0371501375 (+10.650 kcal/mol)
C       -0.2289544258   -1.3172986879   -1.1396504917
C       -0.6569479221   -0.2642153530   -0.7729888302
H       -0.8796502847    0.6686086996   -0.3226487728
H        0.2374202994   -2.2232400113   -1.3773292446
C        0.4219274483    1.4852942731    1.3379326843
N        1.1062048839    1.6508510813    2.2746846536
6    
Image 6/11, Energy =  -169.0298265522 (+15.246 kcal/mol)
C       -0.1987769048   -1.2416989815   -1.0552278040
C       -0.7082479019   -0.1983923494   -0.7693423606
H       -1.0644059184    0.7316632424   -0.4325523113
H        0.3822237284   -2.1045935191   -1.1611138671
C        0.4405488674    1.3824600947    1.2433069420
N        1.1486581285    1.4305615149    2.1749293993
6    
Image 7/11, Energy =  -169.0156765001 (+24.125 kcal/mol)
C       -0.1966153069   -1.1673549351   -0.9946983371
C       -0.6968784534   -0.1138289529   -0.7092403586
H       -1.2157467398    0.7739619177   -0.5306689482
H        0.4975569653   -1.9499696388   -0.9485681959
C        0.4567934767    1.1957120467    1.1251192777
N        1.1548900590    1.2614795640    2.0580565604
6    
Image 8/11, Energy =  -168.9959950297 (+36.476 kcal/mol)
C       -0.2355617896   -1.1149428289   -0.9847723283
C       -0.6020799479    0.0070955029   -0.5556580166
H       -1.3149964094    0.7860847399   -0.6126657066
H        0.5786579197   -1.7685904660   -0.7509552953
C        0.4543148089    0.9420387988    0.9845261896
N        1.1196654204    1.1483142543    1.9195251553
6    
Image 9/11, Energy =  -169.0131528715 (+25.709 kcal/mol)
C       -0.2594235476   -1.0899672174   -0.9952155775
C       -0.4980236904    0.0832612155   -0.4139771523
H       -1.2882327025    0.7840388489   -0.6063208468
H        0.5833560408   -1.7206829377   -0.7027238454
C        0.4088539645    0.8191474290    0.8977948929
N        1.0534699379    1.1242026627    1.8204425276
6    
Image 10/11, Energy =  -169.0450280987 (+5.707 kcal/mol)
C       -0.2621558455   -1.0375648643   -0.9849831972
C       -0.4394724183    0.1448813965   -0.3146451553
H       -1.2369288594    0.8199852189   -0.5927880212
H        0.6030705059   -1.5856678970   -0.5514840624
C        0.3482331706    0.6332965578    0.7796522209
N        0.9872534521    1.0250695880    1.6642482151
