6    
Image 0/11, Energy =  -169.0541225047 (+0.000 kcal/mol)
C       -0.3739981687   -1.4835649798   -1.4070811137
C       -0.1593894936   -0.6267231344   -0.5957044914
H        0.0347237090    0.1461263812    0.1365769974
H       -0.5620255952   -2.2351986645   -2.1185513169
C        0.4238299506    1.6832116562    1.5959377344
N        0.6368595980    2.5161487414    2.3888221955
6    
Image 1/11, Energy =  -169.0532523496 (+0.546 kcal/mol)
C       -0.3535417496   -1.4723298273   -1.3761218927
C       -0.2665825658   -0.5362741301   -0.6331585750
H       -0.1342166179    0.2737172131    0.0701945233
H       -0.4042051785   -2.2993827883   -2.0175414523
C        0.4057832906    1.6559327471    1.5525804767
N        0.7527628205    2.3783367860    2.4040469231
6    
Image 2/11, Energy =  -169.0509391238 (+1.998 kcal/mol)
C       -0.3284073052   -1.4532149903   -1.3383009867
C       -0.3749707763   -0.4567648905   -0.6765494780
H       -0.3103714956    0.3896447666   -0.0111947112
H       -0.2431919729   -2.3370081279   -1.8932275761
C        0.3935097055    1.6321149871    1.5141519296
N        0.8634318434    2.2252282561    2.4051208238
6    
Image 3/11, Energy =  -169.0474425987 (+4.192 kcal/mol)
C       -0.2967343370   -1.4236003231   -1.2871470163
C       -0.4810362468   -0.3863446346   -0.7164780265
H       -0.4948824984    0.4955690196   -0.1055446820
H       -0.0802758102   -2.3387551257   -1.7445890075
C        0.3897607554    1.6042505319    1.4683751866
N        0.9631681361    2.0488805332    2.3853835459
6    
Image 4/11, Energy =  -169.0429659791 (+7.001 kcal/mol)
C       -0.2615592883   -1.3778464954   -1.2194272648
C       -0.5775076943   -0.3242862213   -0.7508971126
H       -0.6856708868    0.5893820337   -0.2091560664
H        0.0819648999   -2.3019043818   -1.5710869293
C        0.3945151484    1.5674159759    1.4103034091
N        1.0482578203    1.8472390906    2.3402639634
6    
Image 5/11, Energy =  -169.0374251304 (+10.478 kcal/mol)
C       -0.2260461148   -1.3156159288   -1.1383357132
C       -0.6574020207   -0.2636260958   -0.7738680546
H       -0.8800258417    0.6692053661   -0.3220015783
H        0.2395385912   -2.2233066199   -1.3715515210
C        0.4101401447    1.5035149466    1.3396212409
N        1.1137952406    1.6298283337    2.2661356247
6    
Image 6/11, Energy =  -169.0297963028 (+15.265 kcal/mol)
C       -0.1986340678   -1.2394989398   -1.0556586456
C       -0.7068379512   -0.1971469694   -0.7710773571
H       -1.0636905228    0.7330137835   -0.4344846331
H        0.3818997667   -2.1032728861   -1.1562591150
C        0.4337898747    1.3808969114    1.2477203250
N        1.1534729001    1.4260081020    2.1697594243
6    
Image 7/11, Energy =  -169.0148033061 (+24.673 kcal/mol)
C       -0.2004864650   -1.1656571786   -0.9983338868
C       -0.6963886724   -0.1101150087   -0.7083673207
H       -1.2193432624    0.7749161777   -0.5395490832
H        0.4999630949   -1.9393375199   -0.9368945533
C        0.4558535928    1.1770516411    1.1270156242
N        1.1604017134    1.2631418896    2.0561292181
6    
Image 8/11, Energy =  -168.9960750033 (+36.425 kcal/mol)
C       -0.2421771189   -1.1145815079   -0.9914455931
C       -0.5994882528    0.0129177039   -0.5498017617
H       -1.3205036729    0.7834045497   -0.6244624238
H        0.5818111237   -1.7466085841   -0.7315480102
C        0.4567553961    0.9185156804    0.9835258493
N        1.1236025271    1.1463521589    1.9137319378
6    
Image 9/11, Energy =  -169.0149474628 (+24.583 kcal/mol)
C       -0.2617663277   -1.0891126940   -0.9971723598
C       -0.4997582911    0.0885849566   -0.4118307080
H       -1.2967675686    0.7859425407   -0.6146229889
H        0.5904949974   -1.7047529217   -0.6850802185
C        0.4098640958    0.8015431265    0.8937036767
N        1.0579330972    1.1177949925    1.8150025971
6    
Image 10/11, Energy =  -169.0450280987 (+5.707 kcal/mol)
C       -0.2621558455   -1.0375648643   -0.9849831972
C       -0.4394724183    0.1448813965   -0.3146451553
H       -1.2369288594    0.8199852189   -0.5927880212
H        0.6030705059   -1.5856678970   -0.5514840624
C        0.3482331706    0.6332965578    0.7796522209
N        0.9872534521    1.0250695880    1.6642482151
