6    
Image 0/11, Energy =  -169.0541225045 (+0.000 kcal/mol)
C       -0.3739981793   -1.4835649428   -1.4070811878
C       -0.1593894830   -0.6267231609   -0.5957044385
H        0.0347237196    0.1461263335    0.1365770662
H       -0.5620256323   -2.2351985692   -2.1185514810
C        0.4238299770    1.6832115821    1.5959378403
N        0.6368596033    2.5161487572    2.3888222008
6    
Image 1/11, Energy =  -169.0535365376 (+0.368 kcal/mol)
C       -0.3516803236   -1.4839632576   -1.3869940077
C       -0.2539689065   -0.5547809182   -0.6352362752
H       -0.1257519768    0.2601070521    0.0638629206
H       -0.4242973616   -2.3068989105   -2.0369141367
C        0.3776982860    1.7024803429    1.5662381370
N        0.7780002797    2.3830556899    2.4290433642
6    
Image 2/11, Energy =  -169.0520877061 (+1.277 kcal/mol)
C       -0.3269658983   -1.4751204073   -1.3564518016
C       -0.3378041275   -0.4931827244   -0.6685326950
H       -0.2741191636    0.3578637617   -0.0065095671
H       -0.2929949364   -2.3471663589   -1.9428695557
C        0.3371547637    1.7249372624    1.5400883947
N        0.8947293597    2.2326684655    2.4342752284
6    
Image 3/11, Energy =  -169.0497198278 (+2.763 kcal/mol)
C       -0.2942214548   -1.4514686642   -1.3051246069
C       -0.4158090258   -0.4288029429   -0.6919887601
H       -0.4279905939    0.4568950904   -0.0797195476
H       -0.1552204964   -2.3580761053   -1.8183490335
C        0.2888808751    1.7568592549    1.5043911237
N        1.0043606940    2.0245933677    2.3907908263
6    
Image 4/11, Energy =  -169.0459228419 (+5.145 kcal/mol)
C       -0.2543695604   -1.4093389983   -1.2307531780
C       -0.5136549958   -0.3553385210   -0.7244664083
H       -0.6263147464    0.5629651492   -0.1859041814
H        0.0158212264   -2.3385247183   -1.6398503128
C        0.2758527300    1.7713834027    1.4759443643
N        1.1026653443    1.7688536853    2.3050297170
6    
Image 5/11, Energy =  -169.0409108774 (+8.290 kcal/mol)
C       -0.2120457081   -1.3461237659   -1.1374660591
C       -0.6185351456   -0.2858349982   -0.7611442677
H       -0.8537041668    0.6535434664   -0.3228272038
H        0.1961041641   -2.2718768216   -1.4194175398
C        0.3066622283    1.7502285501    1.4512540677
N        1.1815186251    1.5000635673    2.1896010028
6    
Image 6/11, Energy =  -169.0352417102 (+11.848 kcal/mol)
C       -0.1754143452   -1.2572574045   -1.0356766610
C       -0.7195922106   -0.2201592510   -0.7994488684
H       -1.0874899746    0.7172992531   -0.4785073409
H        0.3657890855   -2.1465892458   -1.1734362583
C        0.3556196041    1.6436279962    1.4234747988
N        1.2610878334    1.2630786451    2.0635943287
6    
Image 7/11, Energy =  -169.0287311422 (+15.933 kcal/mol)
C       -0.1541148529   -1.1597991278   -0.9569283742
C       -0.7925376720   -0.1598951543   -0.8221035533
H       -1.2658876830    0.7545424313   -0.6015895597
H        0.5007975593   -1.9801164144   -0.9504909499
C        0.3913743457    1.4038758540    1.3330234604
N        1.3203682934    1.1413924021    1.9980889752
6    
Image 8/11, Energy =  -169.0140021043 (+25.176 kcal/mol)
C       -0.1785669613   -1.1183667458   -0.9564446150
C       -0.7504223785   -0.0870171235   -0.7343701762
H       -1.3159383721    0.7860971295   -0.6187533640
H        0.5620531904   -1.8477776810   -0.8130538249
C        0.4047163778    1.1212966792    1.1730864375
N        1.2781581334    1.1457677317    1.9495355405
6    
Image 9/11, Energy =  -168.9961836771 (+36.357 kcal/mol)
C       -0.2401555538   -1.1108992479   -1.0058372574
C       -0.6114521560    0.0019750473   -0.5445474504
H       -1.3168761095    0.7833988409   -0.6204856061
H        0.5732505160   -1.7485452303   -0.7320478140
C        0.4230284048    0.9043034425    1.0246975653
N        1.1722048884    1.1697671377    1.8782205606
6    
Image 10/11, Energy =  -169.0450280986 (+5.707 kcal/mol)
C       -0.2621558402   -1.0375648166   -0.9849832183
C       -0.4394815308    0.1448746231   -0.3146355878
H       -1.2369564931    0.8199646233   -0.5927588847
H        0.6030896833   -1.5856535457   -0.5515042875
C        0.3482367849    0.6332992196    0.7796484267
N        0.9872674012    1.0250798964    1.6642335463
