6    
Image 0/11, Energy =  -169.0541225045 (+0.000 kcal/mol)
C       -0.3739982957   -1.4835651492   -1.4070811772
C       -0.1593894248   -0.6267231027   -0.5957044967
H        0.0347238413    0.1461265082    0.1365768439
H       -0.5620258492   -2.2351989079   -2.1185513963
C        0.4238300935    1.6832117409    1.5959379090
N        0.6368596297    2.5161489107    2.3888223120
6    
Image 1/11, Energy =  -169.0532808995 (+0.528 kcal/mol)
C       -0.3446598506   -1.4759927117   -1.3712693467
C       -0.2608565626   -0.5396459358   -0.6279342318
H       -0.1421559132    0.2815945107    0.0655359035
H       -0.4031075228   -2.3028968273   -2.0150528523
C        0.3614386211    1.6958645312    1.5368576479
N        0.7893412248    2.3410764331    2.4118628766
6    
Image 2/11, Energy =  -169.0510763208 (+1.912 kcal/mol)
C       -0.3114456336   -1.4556702019   -1.3220814697
C       -0.3620016544   -0.4569555855   -0.6619533916
H       -0.3226929876    0.4070906324   -0.0160353247
H       -0.2382078337   -2.3392840145   -1.8828556496
C        0.3096716307    1.7134407090    1.4905542024
N        0.9246764765    2.1313784602    2.3923716323
6    
Image 3/11, Energy =  -169.0476977707 (+4.032 kcal/mol)
C       -0.2741419825   -1.4188419904   -1.2581378082
C       -0.4647716355   -0.3773375749   -0.6989009730
H       -0.5143888564    0.5213814615   -0.1120040323
H       -0.0657069408   -2.3376278056   -1.7183341267
C        0.2830983507    1.7129161286    1.4561021505
N        1.0359110633    1.8995097796    2.3312747898
6    
Image 4/11, Energy =  -169.0431319070 (+6.897 kcal/mol)
C       -0.2348293375   -1.3640119946   -1.1821303651
C       -0.5691596124   -0.3041552345   -0.7392176970
H       -0.7211700576    0.6206068151   -0.2283947671
H        0.1111870610   -2.2924758032   -1.5234327972
C        0.2897784024    1.6673820962    1.4261499075
N        1.1241935437    1.6726541190    2.2470257197
6    
Image 5/11, Energy =  -169.0375314599 (+10.411 kcal/mol)
C       -0.1994434277   -1.2938506221   -1.1002859217
C       -0.6638966268   -0.2413491660   -0.7764871786
H       -0.9309097747    0.6955186265   -0.3593583142
H        0.2774081706   -2.2022965246   -1.3116643068
C        0.3255608697    1.5654579915    1.3819388124
N        1.1912807889    1.4765196921    2.1658569104
6    
Image 6/11, Energy =  -169.0297981708 (+15.264 kcal/mol)
C       -0.1758559105   -1.2085863460   -1.0203372378
C       -0.7308706315   -0.1768725089   -0.7892768537
H       -1.1264545798    0.7508267180   -0.4891095105
H        0.4267254446   -2.0623633356   -1.0822726500
C        0.3681375201    1.3851172273    1.3002593257
N        1.2383181573    1.3118782419    2.0807369284
6    
Image 7/11, Energy =  -169.0138640042 (+25.263 kcal/mol)
C       -0.1893526889   -1.1419404913   -0.9874670083
C       -0.7154388433   -0.0962501835   -0.7174071901
H       -1.2607476093    0.7838326288   -0.5820404310
H        0.5300116152   -1.8951261031   -0.8736899914
C        0.4070196139    1.1337954105    1.1668162454
N        1.2285079124    1.2156887348    1.9937883775
6    
Image 8/11, Energy =  -168.9962250435 (+36.331 kcal/mol)
C       -0.2373509183   -1.1129752098   -1.0120880974
C       -0.6045937422   -0.0003335550   -0.5492638165
H       -1.3059642477    0.7848942954   -0.6205833932
H        0.5703948978   -1.7587859218   -0.7417255180
C        0.4252239062    0.9011703975    1.0287565851
N        1.1522901042    1.1860299896    1.8949042422
6    
Image 9/11, Energy =  -169.0168573606 (+23.384 kcal/mol)
C       -0.2583691091   -1.0823226521   -1.0094966642
C       -0.4948699978    0.0836598148   -0.3931316633
H       -1.2851768572    0.7818459178   -0.6124658374
H        0.5806992418   -1.7114096712   -0.6931955063
C        0.3885029286    0.7840329687    0.9140344182
N        1.0692137937    1.1441936177    1.7942552535
6    
Image 10/11, Energy =  -169.0450280987 (+5.707 kcal/mol)
C       -0.2621558349   -1.0375648325   -0.9849832130
C       -0.4394484890    0.1448992827   -0.3146703706
H       -1.2368562616    0.8200394702   -0.5928644344
H        0.6030199748   -1.5857055903   -0.5514309118
C        0.3482237354    0.6332894616    0.7796621642
N        0.9872168753    1.0250422031    1.6642867551
