6    
Image 0/11, Energy =  -169.0541225047 (+0.000 kcal/mol)
C       -0.3739981687   -1.4835649798   -1.4070811137
C       -0.1593894936   -0.6267231344   -0.5957044914
H        0.0347237090    0.1461263812    0.1365769974
H       -0.5620255952   -2.2351986645   -2.1185513169
C        0.4238299506    1.6832116562    1.5959377344
N        0.6368595980    2.5161487414    2.3888221955
6    
Image 1/11, Energy =  -169.0532472126 (+0.549 kcal/mol)
C       -0.3466432442   -1.4736232155   -1.3716202168
C       -0.2674598214   -0.5378899416   -0.6289771023
H       -0.1439813993    0.2807375000    0.0658677643
H       -0.3985742871   -2.3008971589   -2.0138261311
C        0.3824422942    1.6793713489    1.5388315181
N        0.7742164574    2.3523014677    2.4097241714
6    
Image 2/11, Energy =  -169.0510037270 (+1.957 kcal/mol)
C       -0.3165296885   -1.4548174031   -1.3268485408
C       -0.3742660571   -0.4564848597   -0.6673641483
H       -0.3259967171    0.4015576374   -0.0164670917
H       -0.2327965262   -2.3368517337   -1.8852611894
C        0.3528118553    1.6780777847    1.4929199958
N        0.8967771330    2.1685185753    2.4030209764
6    
Image 3/11, Energy =  -169.0476030462 (+4.091 kcal/mol)
C       -0.2829312245   -1.4220081643   -1.2684992222
C       -0.4775315752   -0.3828310966   -0.7072690323
H       -0.5129980654    0.5093850252   -0.1117069300
H       -0.0667032200   -2.3360816727   -1.7306546635
C        0.3413477720    1.6614968736    1.4512414849
N        0.9988163126    1.9700390360    2.3668883639
6    
Image 4/11, Energy =  -169.0430350566 (+6.957 kcal/mol)
C       -0.2476020128   -1.3717707267   -1.1987885836
C       -0.5748858870   -0.3155314886   -0.7437749829
H       -0.7056308297    0.6042381175   -0.2203970859
H        0.0975399147   -2.2950612505   -1.5491398627
C        0.3505943338    1.6116083461    1.4052698262
N        1.0799844809    1.7665170035    2.3068306887
6    
Image 5/11, Energy =  -169.0370628565 (+10.705 kcal/mol)
C       -0.2149007087   -1.3035241714   -1.1191160255
C       -0.6597714136   -0.2504549053   -0.7719284023
H       -0.9024955944    0.6846644143   -0.3401435828
H        0.2572740670   -2.2092192598   -1.3414873384
C        0.3778228220    1.5125521465    1.3443027334
N        1.1420708282    1.5659817768    2.2283726147
6    
Image 6/11, Energy =  -169.0283984016 (+16.142 kcal/mol)
C       -0.1947811325   -1.2229943670   -1.0417339236
C       -0.7119953641   -0.1815561425   -0.7711554880
H       -1.0894973656    0.7472232478   -0.4609367280
H        0.4028560861   -2.0763968475   -1.1161632184
C        0.4121537305    1.3487799601    1.2540631674
N        1.1812640469    1.3849441500    2.1359261893
6    
Image 7/11, Energy =  -169.0121980528 (+26.308 kcal/mol)
C       -0.2048918757   -1.1556402983   -1.0019458628
C       -0.6931018617   -0.0984130193   -0.6989228475
H       -1.2315959983    0.7830527416   -0.5599722270
H        0.5116886747   -1.9128365631   -0.9049175043
C        0.4390263456    1.1286158009    1.1354137167
N        1.1788747175    1.2552213389    2.0303447232
6    
Image 8/11, Energy =  -168.9962144128 (+36.338 kcal/mol)
C       -0.2428493331   -1.1177146619   -1.0088370354
C       -0.5989899752    0.0006117886   -0.5503326630
H       -1.3001075805    0.7868080910   -0.6172396416
H        0.5690044414   -1.7633688815   -0.7499186207
C        0.4440856191    0.9091544879    1.0117607768
N        1.1288568307    1.1845091767    1.9145671822
6    
Image 9/11, Energy =  -169.0183657618 (+22.438 kcal/mol)
C       -0.2618339607   -1.0842858165   -1.0056777640
C       -0.4898855231    0.0868956596   -0.3947008841
H       -1.2784819923    0.7878633966   -0.6092913342
H        0.5822002188   -1.7059161859   -0.6885757569
C        0.3963091307    0.7815980984    0.8984323250
N        1.0516921298    1.1338448483    1.7998134128
6    
Image 10/11, Energy =  -169.0450280987 (+5.707 kcal/mol)
C       -0.2621558455   -1.0375648643   -0.9849831972
C       -0.4394724183    0.1448813965   -0.3146451553
H       -1.2369288594    0.8199852189   -0.5927880212
H        0.6030705059   -1.5856678970   -0.5514840624
C        0.3482331706    0.6332965578    0.7796522209
N        0.9872534521    1.0250695880    1.6642482151
