6    
Image 0/11, Energy =  -169.0541225047 (+0.000 kcal/mol)
C       -0.3739981687   -1.4835649798   -1.4070811137
C       -0.1593894936   -0.6267231344   -0.5957044914
H        0.0347237090    0.1461263812    0.1365769974
H       -0.5620255952   -2.2351986645   -2.1185513169
C        0.4238299506    1.6832116562    1.5959377344
N        0.6368595980    2.5161487414    2.3888221955
6    
Image 1/11, Energy =  -169.0531442395 (+0.614 kcal/mol)
C       -0.3435417977   -1.4715849777   -1.3674358713
C       -0.2685229050   -0.5322803874   -0.6283022333
H       -0.1499957213    0.2884563893    0.0643950784
H       -0.3925707546   -2.3013692302   -2.0055473562
C        0.3709254087    1.6803997497    1.5315993051
N        0.7837057698    2.3363784566    2.4052910811
6    
Image 2/11, Energy =  -169.0506739587 (+2.164 kcal/mol)
C       -0.3103723998   -1.4482975086   -1.3179046110
C       -0.3783318957   -0.4458925608   -0.6666777012
H       -0.3397769157    0.4166108318   -0.0209981994
H       -0.2188755741   -2.3354166394   -1.8664379348
C        0.3327455361    1.6798648684    1.4830441898
N        0.9146112494    2.1331310092    2.3889742590
6    
Image 3/11, Energy =  -169.0470132079 (+4.461 kcal/mol)
C       -0.2747095299   -1.4106222388   -1.2562806033
C       -0.4858055312   -0.3683103086   -0.7076768993
H       -0.5347068849    0.5286925490   -0.1210444559
H       -0.0452419079   -2.3297373393   -1.7010896274
C        0.3190846375    1.6594332055    1.4443458247
N        1.0213792169    1.9205441329    2.3417457624
6    
Image 4/11, Energy =  -169.0423075772 (+7.414 kcal/mol)
C       -0.2390287001   -1.3584636179   -1.1848772985
C       -0.5839842734   -0.3011209106   -0.7460014237
H       -0.7302361894    0.6217743824   -0.2334018006
H        0.1204727198   -2.2832857545   -1.5163501955
C        0.3305704200    1.6028781612    1.4043356973
N        1.1022060240    1.7182177403    2.2762950213
6    
Image 5/11, Energy =  -169.0363185534 (+11.172 kcal/mol)
C       -0.2067139393   -1.2902346326   -1.1052182185
C       -0.6662576971   -0.2382025947   -0.7749694801
H       -0.9249092180    0.6972845356   -0.3540296774
H        0.2768979134   -2.1939810804   -1.3119589349
C        0.3579195754    1.4958881320    1.3485081459
N        1.1630633669    1.5292456409    2.1976681645
6    
Image 6/11, Energy =  -169.0279236033 (+16.440 kcal/mol)
C       -0.1891263744   -1.2144650650   -1.0341723877
C       -0.7145955754   -0.1744460380   -0.7736132131
H       -1.1017590253    0.7525631105   -0.4699008570
H        0.4126800509   -2.0659894465   -1.0997643985
C        0.3964414131    1.3333619348    1.2620736340
N        1.1963595129    1.3689755051    2.1153772211
6    
Image 7/11, Energy =  -169.0120458043 (+26.404 kcal/mol)
C       -0.2024706288   -1.1524138707   -1.0004384990
C       -0.6937580582   -0.0956211753   -0.7006409782
H       -1.2357921371    0.7842724645   -0.5638691842
H        0.5141387358   -1.9093260441   -0.8993411222
C        0.4311567841    1.1203671177    1.1417973548
N        1.1867253064    1.2527215088    2.0224924273
6    
Image 8/11, Energy =  -168.9962144128 (+36.338 kcal/mol)
C       -0.2428493331   -1.1177146619   -1.0088370354
C       -0.5989899752    0.0006117886   -0.5503326630
H       -1.3001075805    0.7868080910   -0.6172396416
H        0.5690044414   -1.7633688815   -0.7499186207
C        0.4440856191    0.9091544879    1.0117607768
N        1.1288568307    1.1845091767    1.9145671822
6    
Image 9/11, Energy =  -169.0180301512 (+22.648 kcal/mol)
C       -0.2621619611   -1.0847069640   -1.0066651385
C       -0.4908037803    0.0858739830   -0.3955623916
H       -1.2785604436    0.7876070923   -0.6100187924
H        0.5820686725   -1.7057900675   -0.6886779642
C        0.3963070517    0.7821837595    0.8999781222
N        1.0531504641    1.1348321972    1.8009461632
6    
Image 10/11, Energy =  -169.0450280987 (+5.707 kcal/mol)
C       -0.2621558455   -1.0375648643   -0.9849831972
C       -0.4394724183    0.1448813965   -0.3146451553
H       -1.2369288594    0.8199852189   -0.5927880212
H        0.6030705059   -1.5856678970   -0.5514840624
C        0.3482331706    0.6332965578    0.7796522209
N        0.9872534521    1.0250695880    1.6642482151
