6    
Image 0/11, Energy =  -169.0541225047 (+0.000 kcal/mol)
C       -0.3739981687   -1.4835649798   -1.4070811137
C       -0.1593894936   -0.6267231344   -0.5957044914
H        0.0347237090    0.1461263812    0.1365769974
H       -0.5620255952   -2.2351986645   -2.1185513169
C        0.4238299506    1.6832116562    1.5959377344
N        0.6368595980    2.5161487414    2.3888221955
6    
Image 1/11, Energy =  -169.0532403404 (+0.554 kcal/mol)
C       -0.3462336324   -1.4735829736   -1.3712795812
C       -0.2675433711   -0.5374601001   -0.6286046325
H       -0.1443414897    0.2812819112    0.0656449151
H       -0.3981709780   -2.3007170870   -2.0131089667
C        0.3811358380    1.6797391708    1.5378662558
N        0.7751536328    2.3507390793    2.4094820132
6    
Image 2/11, Energy =  -169.0509838532 (+1.970 kcal/mol)
C       -0.3158656387   -1.4542650894   -1.3257460747
C       -0.3745383319   -0.4560713315   -0.6672185843
H       -0.3264920833    0.4025176379   -0.0167865601
H       -0.2320648550   -2.3365080981   -1.8840899470
C        0.3508429939    1.6787835422    1.4918739711
N        0.8981179145    2.1655433398    2.4019671971
6    
Image 3/11, Energy =  -169.0475734773 (+4.110 kcal/mol)
C       -0.2822786866   -1.4213512635   -1.2672849446
C       -0.4778612451   -0.3820411172   -0.7071974829
H       -0.5139100513    0.5104056452   -0.1123581038
H       -0.0656047515   -2.3354144094   -1.7289137814
C        0.3391354358    1.6620908034    1.4505202816
N        1.0005192984    1.9663103427    2.3652340318
6    
Image 4/11, Energy =  -169.0429788899 (+6.993 kcal/mol)
C       -0.2468797263   -1.3707812092   -1.1972384210
C       -0.5755040765   -0.3142410585   -0.7442578595
H       -0.7075110831    0.6053193282   -0.2213826799
H        0.0992179804   -2.2938788490   -1.5465283448
C        0.3489250224    1.6114792104    1.4051370151
N        1.0817518831    1.7621025792    2.3042702900
6    
Image 5/11, Energy =  -169.0369930874 (+10.749 kcal/mol)
C       -0.2138655695   -1.3020445098   -1.1174822138
C       -0.6605023006   -0.2491764005   -0.7724365141
H       -0.9047664670    0.6857773477   -0.3413169024
H        0.2589797079   -2.2076954841   -1.3384712015
C        0.3758976351    1.5113676351    1.3439469105
N        1.1442569948    1.5617714127    2.2257599203
6    
Image 6/11, Energy =  -169.0283477247 (+16.174 kcal/mol)
C       -0.1934603874   -1.2217971747   -1.0403753081
C       -0.7124256628   -0.1807647667   -0.7712823079
H       -1.0904641310    0.7480230440   -0.4615698547
H        0.4034805639   -2.0757099888   -1.1149307706
C        0.4106748742    1.3466981814    1.2549285253
N        1.1821947446    1.3835507057    2.1332297146
6    
Image 7/11, Energy =  -169.0122177121 (+26.296 kcal/mol)
C       -0.2040249254   -1.1552084192   -1.0014220937
C       -0.6933184323   -0.0982810779   -0.6990230056
H       -1.2314261975    0.7834882863   -0.5601468076
H        0.5113512193   -1.9136871238   -0.9058431565
C        0.4379773410    1.1269696558    1.1369490642
N        1.1794409970    1.2567186796    2.0294859977
6    
Image 8/11, Energy =  -168.9962144128 (+36.338 kcal/mol)
C       -0.2428493331   -1.1177146619   -1.0088370354
C       -0.5989899752    0.0006117886   -0.5503326630
H       -1.3001075805    0.7868080910   -0.6172396416
H        0.5690044414   -1.7633688815   -0.7499186207
C        0.4440856191    0.9091544879    1.0117607768
N        1.1288568307    1.1845091767    1.9145671822
6    
Image 9/11, Energy =  -169.0180301512 (+22.648 kcal/mol)
C       -0.2621619611   -1.0847069640   -1.0066651385
C       -0.4908037803    0.0858739830   -0.3955623916
H       -1.2785604436    0.7876070923   -0.6100187924
H        0.5820686725   -1.7057900675   -0.6886779642
C        0.3963070517    0.7821837595    0.8999781222
N        1.0531504641    1.1348321972    1.8009461632
6    
Image 10/11, Energy =  -169.0450280987 (+5.707 kcal/mol)
C       -0.2621558455   -1.0375648643   -0.9849831972
C       -0.4394724183    0.1448813965   -0.3146451553
H       -1.2369288594    0.8199852189   -0.5927880212
H        0.6030705059   -1.5856678970   -0.5514840624
C        0.3482331706    0.6332965578    0.7796522209
N        0.9872534521    1.0250695880    1.6642482151
