6    
Image 0/11, Energy =  -169.0541225047 (+0.000 kcal/mol)
C       -0.3739981687   -1.4835649798   -1.4070811137
C       -0.1593894936   -0.6267231344   -0.5957044914
H        0.0347237090    0.1461263812    0.1365769974
H       -0.5620255952   -2.2351986645   -2.1185513169
C        0.4238299506    1.6832116562    1.5959377344
N        0.6368595980    2.5161487414    2.3888221955
6    
Image 1/11, Energy =  -169.0529567294 (+0.732 kcal/mol)
C       -0.3511162509   -1.4634910211   -1.3787700854
C       -0.2652656951   -0.5314486505   -0.6357049596
H       -0.1196893450    0.2750089630    0.0741961405
H       -0.4186841458   -2.2963656147   -2.0145303097
C        0.4321600229    1.6114404389    1.5724464586
N        0.7225954145    2.4048558839    2.3823627577
6    
Image 2/11, Energy =  -169.0500321305 (+2.567 kcal/mol)
C       -0.3260102226   -1.4426597477   -1.3378813443
C       -0.3719476174   -0.4460998920   -0.6779551771
H       -0.2870014142    0.3922151810   -0.0009022245
H       -0.2653565078   -2.3288224000   -1.8930248227
C        0.4396021814    1.5509291786    1.5364720302
N        0.8107135804    2.2744376799    2.3732915382
6    
Image 3/11, Energy =  -169.0460086364 (+5.092 kcal/mol)
C       -0.2955202701   -1.4159427155   -1.2816665028
C       -0.4771977105   -0.3746191473   -0.7233279909
H       -0.4747116331    0.4985278545   -0.0959230259
H       -0.1034232469   -2.3320954833   -1.7513109128
C        0.4446586622    1.5035692671    1.4884830834
N        0.9061941970    2.1205602257    2.3637453481
6    
Image 4/11, Energy =  -169.0412894044 (+8.053 kcal/mol)
C       -0.2585067012   -1.3729159928   -1.2131062225
C       -0.5762510665   -0.3181451995   -0.7574374989
H       -0.6792305071    0.5931746696   -0.2099649509
H        0.0622569281   -2.2994309679   -1.5844858208
C        0.4504169863    1.4627482921    1.4229307946
N        1.0013143581    1.9345692005    2.3420636975
6    
Image 5/11, Energy =  -169.0361260102 (+11.293 kcal/mol)
C       -0.2185339205   -1.3137885038   -1.1283366981
C       -0.6611814881   -0.2643847569   -0.7740617264
H       -0.8819283019    0.6689209279   -0.3255478485
H        0.2237242597   -2.2234707811   -1.3957083381
C        0.4565406419    1.4278658425    1.3372134416
N        1.0813788072    1.7048572741    2.2864411686
6    
Image 6/11, Energy =  -169.0295799208 (+15.401 kcal/mol)
C       -0.1861053835   -1.2384243420   -1.0344969428
C       -0.7187138743   -0.2026697113   -0.7659049807
H       -1.0700231357    0.7303476170   -0.4360061244
H        0.3780306265   -2.1042663164   -1.1817217092
C        0.4618208056    1.3667227196    1.2329275888
N        1.1349909606    1.4482900358    2.1852021670
6    
Image 7/11, Energy =  -169.0169162664 (+23.347 kcal/mol)
C       -0.1825789719   -1.1638020131   -0.9722093782
C       -0.7101397846   -0.1207338209   -0.7019674274
H       -1.2181471275    0.7722521050   -0.5301449617
H        0.5017390668   -1.9520376063   -0.9614910107
C        0.4603684309    1.2284064699    1.1104574446
N        1.1487583861    1.2359148674    2.0553553316
6    
Image 8/11, Energy =  -168.9966004038 (+36.096 kcal/mol)
C       -0.2195298071   -1.1170474958   -0.9691390232
C       -0.6106411018   -0.0172895148   -0.5645099314
H       -1.2911237100    0.7821099623   -0.5865489328
H        0.5637896387   -1.8133976711   -0.8033491211
C        0.4440237653    1.0206551284    0.9906653870
N        1.1134812161    1.1449695923    1.9328816196
6    
Image 9/11, Energy =  -169.0130610855 (+25.766 kcal/mol)
C       -0.2534032512   -1.0904577382   -0.9855563436
C       -0.4958652964    0.0858058318   -0.4028253591
H       -1.2828970137    0.7876526524   -0.5945658489
H        0.5872417528   -1.7378980408   -0.7201964275
C        0.3973289696    0.8400388800    0.8863268506
N        1.0475948410    1.1148584157    1.8168171269
6    
Image 10/11, Energy =  -169.0450280987 (+5.707 kcal/mol)
C       -0.2621558455   -1.0375648643   -0.9849831972
C       -0.4394724183    0.1448813965   -0.3146451553
H       -1.2369288594    0.8199852189   -0.5927880212
H        0.6030705059   -1.5856678970   -0.5514840624
C        0.3482331706    0.6332965578    0.7796522209
N        0.9872534521    1.0250695880    1.6642482151
