6    
Image 0/11, Energy =  -169.0541225047 (+0.000 kcal/mol)
C       -0.3739981687   -1.4835649798   -1.4070811137
C       -0.1593894936   -0.6267231344   -0.5957044914
H        0.0347237090    0.1461263812    0.1365769974
H       -0.5620255952   -2.2351986645   -2.1185513169
C        0.4238299506    1.6832116562    1.5959377344
N        0.6368595980    2.5161487414    2.3888221955
6    
Image 1/11, Energy =  -169.0530105663 (+0.698 kcal/mol)
C       -0.3506690326   -1.4641114263   -1.3803321434
C       -0.2666354271   -0.5319619271   -0.6334699858
H       -0.1200802851    0.2736277870    0.0723376240
H       -0.4176432846   -2.2965232473   -2.0142293461
C        0.4302401820    1.6167780680    1.5720067628
N        0.7247878476    2.4021907453    2.3836870907
6    
Image 2/11, Energy =  -169.0501564586 (+2.489 kcal/mol)
C       -0.3245375632   -1.4428611284   -1.3396311670
C       -0.3747461032   -0.4480453360   -0.6762084643
H       -0.2884777005    0.3915638376   -0.0035205865
H       -0.2635376492   -2.3301483609   -1.8925089146
C        0.4347338681    1.5587902009    1.5340603114
N        0.8165651476    2.2707007868    2.3778088210
6    
Image 3/11, Energy =  -169.0462071325 (+4.967 kcal/mol)
C       -0.2948701005   -1.4164642872   -1.2846577934
C       -0.4791569558   -0.3752240711   -0.7212303116
H       -0.4766494813    0.4976889184   -0.0974849392
H       -0.1010456437   -2.3333708106   -1.7496862411
C        0.4391922127    1.5126720795    1.4854483478
N        0.9125299672    2.1146981722    2.3676109367
6    
Image 4/11, Energy =  -169.0415085621 (+7.915 kcal/mol)
C       -0.2601883866   -1.3735724591   -1.2154964903
C       -0.5762677222   -0.3185612931   -0.7555731296
H       -0.6794796217    0.5920023647   -0.2104174909
H        0.0647414254   -2.2996976441   -1.5829658999
C        0.4458613522    1.4732936765    1.4226990555
N        1.0053329508    1.9265353573    2.3417539542
6    
Image 5/11, Energy =  -169.0362679566 (+11.204 kcal/mol)
C       -0.2211911606   -1.3160202423   -1.1311544530
C       -0.6604139344   -0.2634691838   -0.7731133588
H       -0.8805372505    0.6668090445   -0.3261266153
H        0.2253845681   -2.2217263716   -1.3929484835
C        0.4526221050    1.4356997421    1.3382222388
N        1.0841356707    1.6987070138    2.2851206707
6    
Image 6/11, Energy =  -169.0296394315 (+15.363 kcal/mol)
C       -0.1888392896   -1.2385464504   -1.0374530569
C       -0.7171964253   -0.2028709281   -0.7672234361
H       -1.0677912299    0.7276543150   -0.4356368272
H        0.3779034589   -2.1018719275   -1.1779079794
C        0.4589691955    1.3706667976    1.2341383390
N        1.1369542896    1.4449681960    2.1840829594
6    
Image 7/11, Energy =  -169.0167081588 (+23.478 kcal/mol)
C       -0.1830868623   -1.1656570578   -0.9758484165
C       -0.7090198320   -0.1185787034   -0.7039045656
H       -1.2155909689    0.7694178874   -0.5291546636
H        0.4985652506   -1.9506422802   -0.9599541020
C        0.4596549773    1.2258267962    1.1126597083
N        1.1494774353    1.2396333598    2.0562020376
6    
Image 8/11, Energy =  -168.9965326439 (+36.138 kcal/mol)
C       -0.2202367299   -1.1169226664   -0.9710980570
C       -0.6096163058   -0.0147915912   -0.5651570419
H       -1.2920474309    0.7817140054   -0.5876464546
H        0.5630647238   -1.8096692297   -0.7993975008
C        0.4445438366    1.0111809159    0.9899212564
N        1.1142919075    1.1484885673    1.9333777958
6    
Image 9/11, Energy =  -169.0125089429 (+26.113 kcal/mol)
C       -0.2527492476   -1.0906003877   -0.9859377163
C       -0.4974994384    0.0831082839   -0.4070647469
H       -1.2821009935    0.7885093454   -0.5948743086
H        0.5853714563   -1.7373394801   -0.7196059024
C        0.3984135061    0.8386337226    0.8887324740
N        1.0485647191    1.1176885171    1.8187501989
6    
Image 10/11, Energy =  -169.0450280987 (+5.707 kcal/mol)
C       -0.2621558455   -1.0375648643   -0.9849831972
C       -0.4394724183    0.1448813965   -0.3146451553
H       -1.2369288594    0.8199852189   -0.5927880212
H        0.6030705059   -1.5856678970   -0.5514840624
C        0.3482331706    0.6332965578    0.7796522209
N        0.9872534521    1.0250695880    1.6642482151
