6    
Image 0/11, Energy =  -169.0541225045 (+0.000 kcal/mol)
C       -0.3739982957   -1.4835651492   -1.4070811772
C       -0.1593894248   -0.6267231027   -0.5957044967
H        0.0347238413    0.1461265082    0.1365768439
H       -0.5620258492   -2.2351989079   -2.1185513963
C        0.4238300935    1.6832117409    1.5959379090
N        0.6368596297    2.5161489107    2.3888223120
6    
Image 1/11, Energy =  -169.0532994140 (+0.516 kcal/mol)
C       -0.3451151171   -1.4763858484   -1.3720451371
C       -0.2606739842   -0.5403938975   -0.6283218797
H       -0.1414220356    0.2802821577    0.0656632327
H       -0.4040571500   -2.3028928820   -2.0163514097
C        0.3633582301    1.6954226081    1.5382301107
N        0.7879100536    2.3439678624    2.4128250805
6    
Image 2/11, Energy =  -169.0511113141 (+1.890 kcal/mol)
C       -0.3119310373   -1.4562845300   -1.3230535500
C       -0.3614452485   -0.4580512278   -0.6621091158
H       -0.3215609475    0.4056950033   -0.0156710608
H       -0.2396673200   -2.3395142700   -1.8847775970
C        0.3112968610    1.7135280076    1.4914819607
N        0.9233076904    2.1346270167    2.3941293618
6    
Image 3/11, Energy =  -169.0477605778 (+3.992 kcal/mol)
C       -0.2747938047   -1.4199234082   -1.2594721529
C       -0.4638229200   -0.3788979473   -0.6986936520
H       -0.5122822282    0.5196456481   -0.1112664139
H       -0.0680235756   -2.3383236738   -1.7213524376
C        0.2849001916    1.7135341006    1.4565593765
N        1.0340223359    1.9039652796    2.3342252801
6    
Image 4/11, Energy =  -169.0432004519 (+6.854 kcal/mol)
C       -0.2354615952   -1.3651477682   -1.1833434330
C       -0.5681475484   -0.3054696165   -0.7387098456
H       -0.7187290268    0.6193101575   -0.2273254205
H        0.1088815749   -2.2936044996   -1.5264225561
C        0.2911831922    1.6684835391    1.4258064537
N        1.1222734028    1.6764281858    2.2499948024
6    
Image 5/11, Energy =  -169.0375822250 (+10.379 kcal/mol)
C       -0.1998845576   -1.2947819877   -1.1009276692
C       -0.6630964895   -0.2420771016   -0.7759499080
H       -0.9291101021    0.6949073044   -0.3582951350
H        0.2758296455   -2.2034809064   -1.3138892448
C        0.3266922768    1.5668475169    1.3810810473
N        1.1895692270    1.4785851720    2.1679809112
6    
Image 6/11, Energy =  -169.0298817311 (+15.211 kcal/mol)
C       -0.1759511492   -1.2094337076   -1.0203422597
C       -0.7308796738   -0.1777556362   -0.7891482002
H       -1.1251518081    0.7503056321   -0.4883640124
H        0.4256194003   -2.0637286447   -1.0843723940
C        0.3696855560    1.3880702518    1.2994109533
N        1.2366776750    1.3125421015    2.0828159150
6    
Image 7/11, Energy =  -169.0138640042 (+25.263 kcal/mol)
C       -0.1893526889   -1.1419404913   -0.9874670083
C       -0.7154388433   -0.0962501835   -0.7174071901
H       -1.2607476093    0.7838326288   -0.5820404310
H        0.5300116152   -1.8951261031   -0.8736899914
C        0.4070196139    1.1337954105    1.1668162454
N        1.2285079124    1.2156887348    1.9937883775
6    
Image 8/11, Energy =  -168.9962250435 (+36.331 kcal/mol)
C       -0.2373509183   -1.1129752098   -1.0120880974
C       -0.6045937422   -0.0003335550   -0.5492638165
H       -1.3059642477    0.7848942954   -0.6205833932
H        0.5703948978   -1.7587859218   -0.7417255180
C        0.4252239062    0.9011703975    1.0287565851
N        1.1522901042    1.1860299896    1.8949042422
6    
Image 9/11, Energy =  -169.0168573606 (+23.384 kcal/mol)
C       -0.2583691091   -1.0823226521   -1.0094966642
C       -0.4948699978    0.0836598148   -0.3931316633
H       -1.2851768572    0.7818459178   -0.6124658374
H        0.5806992418   -1.7114096712   -0.6931955063
C        0.3885029286    0.7840329687    0.9140344182
N        1.0692137937    1.1441936177    1.7942552535
6    
Image 10/11, Energy =  -169.0450280987 (+5.707 kcal/mol)
C       -0.2621558349   -1.0375648325   -0.9849832130
C       -0.4394484890    0.1448992827   -0.3146703706
H       -1.2368562616    0.8200394702   -0.5928644344
H        0.6030199748   -1.5857055903   -0.5514309118
C        0.3482237354    0.6332894616    0.7796621642
N        0.9872168753    1.0250422031    1.6642867551
