6    
Image 0/11, Energy =  -169.0541225045 (+0.000 kcal/mol)
C       -0.3739982957   -1.4835651492   -1.4070811772
C       -0.1593894248   -0.6267231027   -0.5957044967
H        0.0347238413    0.1461265082    0.1365768439
H       -0.5620258492   -2.2351989079   -2.1185513963
C        0.4238300935    1.6832117409    1.5959379090
N        0.6368596297    2.5161489107    2.3888223120
6    
Image 1/11, Energy =  -169.0532712534 (+0.534 kcal/mol)
C       -0.3443522229   -1.4757699826   -1.3708572484
C       -0.2610969661   -0.5392282195   -0.6276772048
H       -0.1426028605    0.2824418471    0.0654236970
H       -0.4025019003   -2.3029802430   -2.0142985641
C        0.3602991184    1.6960082632    1.5359786323
N        0.7902548279    2.3395283349    2.4114306852
6    
Image 2/11, Energy =  -169.0510349430 (+1.937 kcal/mol)
C       -0.3106767067   -1.4549662633   -1.3211853603
C       -0.3634030664   -0.4557884635   -0.6622359317
H       -0.3247073402    0.4085430265   -0.0170079987
H       -0.2361457581   -2.3392173319   -1.8805245472
C        0.3083038964    1.7131788925    1.4900614480
N        0.9266289730    2.1282501394    2.3908923887
6    
Image 3/11, Energy =  -169.0476364170 (+4.070 kcal/mol)
C       -0.2732971603   -1.4179342850   -1.2573341378
C       -0.4667680303   -0.3761692440   -0.6996378034
H       -0.5175846349    0.5228706949   -0.1138422076
H       -0.0629567461   -2.3372073116   -1.7154601283
C        0.2821316514    1.7119974873    1.4567675598
N        1.0384749191    1.8964426571    2.3295067174
6    
Image 4/11, Energy =  -169.0430905081 (+6.923 kcal/mol)
C       -0.2342537417   -1.3635424485   -1.1815923494
C       -0.5706085967   -0.3036691795   -0.7403547536
H       -0.7242000073    0.6209549161   -0.2301740099
H        0.1131331509   -2.2919174657   -1.5216868754
C        0.2896130759    1.6671118292    1.4275601645
N        1.1263161183    1.6710623464    2.2462478246
6    
Image 5/11, Energy =  -169.0374911610 (+10.436 kcal/mol)
C       -0.1988293112   -1.2930470350   -1.0995646119
C       -0.6650212709   -0.2408285176   -0.7773873667
H       -0.9331871231    0.6958558071   -0.3608328157
H        0.2790537726   -2.2011943937   -1.3096710904
C        0.3248164544    1.5645697312    1.3834440538
N        1.1931674782    1.4746444055    2.1640118324
6    
Image 6/11, Energy =  -169.0297781492 (+15.276 kcal/mol)
C       -0.1755999977   -1.2082875067   -1.0200052015
C       -0.7311462949   -0.1766480485   -0.7894218826
H       -1.1267591135    0.7510248926   -0.4893444468
H        0.4270043416   -2.0619655189   -1.0817898971
C        0.3678058194    1.3842441523    1.3003708239
N        1.2386952452    1.3116320260    2.0801906061
6    
Image 7/11, Energy =  -169.0137870953 (+25.311 kcal/mol)
C       -0.1893095545   -1.1416638854   -0.9874346233
C       -0.7152583555   -0.0958838847   -0.7171939323
H       -1.2609553039    0.7841876826   -0.5822090040
H        0.5301350771   -1.8949817053   -0.8735436357
C        0.4067911146    1.1315329951    1.1672384242
N        1.2285970224    1.2168087939    1.9931427732
6    
Image 8/11, Energy =  -168.9962250435 (+36.331 kcal/mol)
C       -0.2373509183   -1.1129752098   -1.0120880974
C       -0.6045937422   -0.0003335550   -0.5492638165
H       -1.3059642477    0.7848942954   -0.6205833932
H        0.5703948978   -1.7587859218   -0.7417255180
C        0.4252239062    0.9011703975    1.0287565851
N        1.1522901042    1.1860299896    1.8949042422
6    
Image 9/11, Energy =  -169.0168573606 (+23.384 kcal/mol)
C       -0.2583691091   -1.0823226521   -1.0094966642
C       -0.4948699978    0.0836598148   -0.3931316633
H       -1.2851768572    0.7818459178   -0.6124658374
H        0.5806992418   -1.7114096712   -0.6931955063
C        0.3885029286    0.7840329687    0.9140344182
N        1.0692137937    1.1441936177    1.7942552535
6    
Image 10/11, Energy =  -169.0450280987 (+5.707 kcal/mol)
C       -0.2621558349   -1.0375648325   -0.9849832130
C       -0.4394484890    0.1448992827   -0.3146703706
H       -1.2368562616    0.8200394702   -0.5928644344
H        0.6030199748   -1.5857055903   -0.5514309118
C        0.3482237354    0.6332894616    0.7796621642
N        0.9872168753    1.0250422031    1.6642867551
