6    
Image 0/11, Energy =  -169.0541225047 (+0.000 kcal/mol)
C       -0.3739981687   -1.4835649798   -1.4070811137
C       -0.1593894936   -0.6267231344   -0.5957044914
H        0.0347237090    0.1461263812    0.1365769974
H       -0.5620255952   -2.2351986645   -2.1185513169
C        0.4238299506    1.6832116562    1.5959377344
N        0.6368595980    2.5161487414    2.3888221955
6    
Image 1/11, Energy =  -169.0440767016 (+6.304 kcal/mol)
C       -0.3529890914   -1.4249264902   -1.3645561965
C       -0.3260131530   -0.5432242514   -0.5568731062
H       -0.0409440497    0.3505706279    0.0806209812
H       -0.4035629946   -2.3028234035   -2.0324672817
C        0.4255165511    1.5516416089    1.5410487628
N        0.6979927426    2.3687619083    2.3322268405
6    
Image 2/11, Energy =  -169.0408292084 (+8.342 kcal/mol)
C       -0.3147140523   -1.4144646821   -1.3470753621
C       -0.4205341173   -0.4727930172   -0.6075236798
H       -0.2271075647    0.4726965529   -0.0486146690
H       -0.2734892297   -2.3466213965   -1.9070119865
C        0.4653958450    1.4494630290    1.5858586286
N        0.7704491241    2.3117195139    2.3243670687
6    
Image 3/11, Energy =  -169.0419193755 (+7.658 kcal/mol)
C       -0.2939690715   -1.3890742393   -1.3080234805
C       -0.4482471346   -0.3846893251   -0.6797585717
H       -0.4510561733    0.5222090508   -0.1137965166
H       -0.1489182142   -2.3512639428   -1.7711479630
C        0.5249212020    1.3786976601    1.5559969933
N        0.8172693866    2.2241207912    2.3167295334
6    
Image 4/11, Energy =  -169.0301722807 (+15.029 kcal/mol)
C       -0.2945894669   -1.3327467855   -1.2448634251
C       -0.4764800950   -0.3289147658   -0.6551741473
H       -0.7046795492    0.6249119257   -0.2161266845
H        0.0463335962   -2.3185636582   -1.6012817075
C        0.4896133098    1.3810296138    1.4098967567
N        0.9398021998    1.9742836749    2.3075492076
6    
Image 5/11, Energy =  -169.0203841598 (+21.171 kcal/mol)
C       -0.2729245925   -1.3027412506   -1.1771026843
C       -0.5335206370   -0.2387190985   -0.6630475691
H       -0.9681695086    0.7218145111   -0.3477990515
H        0.2451549019   -2.2622961084   -1.3962594212
C        0.4773035581    1.3536960315    1.3174795036
N        1.0521562730    1.7282459202    2.2667292225
6    
Image 6/11, Energy =  -169.0082939960 (+28.758 kcal/mol)
C       -0.2559114065   -1.2710441187   -1.0876411794
C       -0.5741428276   -0.1452082355   -0.6790015630
H       -1.1748101691    0.7735521761   -0.4445075197
H        0.4095252426   -2.1672167643   -1.2065369124
C        0.4816504637    1.3041712879    1.2234095478
N        1.1136886969    1.5057456597    2.1942776267
6    
Image 7/11, Energy =  -168.9983606611 (+34.991 kcal/mol)
C       -0.2410102313   -1.2175250702   -0.9945016623
C       -0.6098587972   -0.0819991028   -0.6040454169
H       -1.2762988536    0.8113563665   -0.5464325790
H        0.5353559832   -2.0213754423   -1.0352653911
C        0.4624467064    1.2298178170    1.1063614350
N        1.1293651975    1.2797254319    2.0738836142
6    
Image 8/11, Energy =  -168.9857901818 (+42.879 kcal/mol)
C       -0.2405145616   -1.1640844312   -0.8830704674
C       -0.6133785485    0.0129764552   -0.5007049785
H       -1.3412708858    0.8330078545   -0.6297843406
H        0.6541497663   -1.8189587638   -0.8424320752
C        0.4243145153    1.1070033144    0.9540415235
N        1.1166997143    1.0300555710    1.9019503332
6    
Image 9/11, Energy =  -169.0123748068 (+26.197 kcal/mol)
C       -0.2567438291   -1.1212519903   -0.8734690840
C       -0.5419736925    0.1213396140   -0.3888220828
H       -1.3165840199    0.8426125843   -0.6665618615
H        0.6913331958   -1.6346170774   -0.6409339675
C        0.3442450584    0.8590416802    0.8277157458
N        1.0797232825    0.9328751942    1.7420712496
6    
Image 10/11, Energy =  -169.0450280987 (+5.707 kcal/mol)
C       -0.2621558455   -1.0375648643   -0.9849831972
C       -0.4394724183    0.1448813965   -0.3146451553
H       -1.2369288594    0.8199852189   -0.5927880212
H        0.6030705059   -1.5856678970   -0.5514840624
C        0.3482331706    0.6332965578    0.7796522209
N        0.9872534521    1.0250695880    1.6642482151
