6    
Image 0/11, Energy =  -169.0541225047 (+0.000 kcal/mol)
C       -0.3739981687   -1.4835649798   -1.4070811137
C       -0.1593894936   -0.6267231344   -0.5957044914
H        0.0347237090    0.1461263812    0.1365769974
H       -0.5620255952   -2.2351986645   -2.1185513169
C        0.4238299506    1.6832116562    1.5959377344
N        0.6368595980    2.5161487414    2.3888221955
6    
Image 1/11, Energy =  -169.0496917202 (+2.780 kcal/mol)
C       -0.3589318456   -1.4488129412   -1.3704643891
C       -0.3001438021   -0.5313477375   -0.5777968200
H       -0.0652701857    0.3221326797    0.0760366270
H       -0.4054913622   -2.2784555084   -2.0144506236
C        0.4310791169    1.5613487761    1.5493034162
N        0.6987580835    2.3751347312    2.3373717900
6    
Image 2/11, Energy =  -169.0456420237 (+5.322 kcal/mol)
C       -0.3249536246   -1.4301725362   -1.3428651754
C       -0.3968758266   -0.4594951710   -0.6269759428
H       -0.2364756819    0.4411067733   -0.0376292054
H       -0.2766150358   -2.3239154437   -1.8995371785
C        0.4671328282    1.4652686161    1.5818397131
N        0.7677873450    2.3072077610    2.3251677885
6    
Image 3/11, Energy =  -169.0429629909 (+7.003 kcal/mol)
C       -0.2960361521   -1.4042636153   -1.3059515361
C       -0.4488498585   -0.3851245624   -0.6861185019
H       -0.4551966191    0.5219420006   -0.1121098329
H       -0.1425740422   -2.3330053489   -1.7622242012
C        0.5153244895    1.3938673027    1.5476613596
N        0.8273321782    2.2065842197    2.3187427083
6    
Image 4/11, Energy =  -169.0353624062 (+11.772 kcal/mol)
C       -0.2761094876   -1.3666350197   -1.2461060762
C       -0.4982978085   -0.3176444410   -0.6749801403
H       -0.6974376664    0.6170156474   -0.2139112242
H        0.0377439811   -2.2961736475   -1.5945452634
C        0.4896692801    1.3863942807    1.4172452013
N        0.9444316960    1.9770431844    2.3122975022
6    
Image 5/11, Energy =  -169.0283815147 (+16.153 kcal/mol)
C       -0.2507234083   -1.3103311532   -1.1607189510
C       -0.5613133555   -0.2404619131   -0.6884894079
H       -0.9468258306    0.6915384107   -0.3502987981
H        0.2259405105   -2.2289900872   -1.3912993170
C        0.4802056185    1.3607078185    1.3231013439
N        1.0527164608    1.7275369295    2.2677051301
6    
Image 6/11, Energy =  -169.0209288791 (+20.829 kcal/mol)
C       -0.2319333194   -1.2525201849   -1.0695282695
C       -0.6080959804   -0.1671247125   -0.6937368001
H       -1.1365315968    0.7359824339   -0.4544006737
H        0.3803171393   -2.1290091154   -1.2025583018
C        0.4844346124    1.3108890097    1.2300136217
N        1.1118091450    1.5017825738    2.1902104234
6    
Image 7/11, Energy =  -169.0102024698 (+27.560 kcal/mol)
C       -0.2222817829   -1.1900355622   -0.9733316536
C       -0.6349120663   -0.1025514162   -0.6307064712
H       -1.2467827690    0.7751873423   -0.5474119560
H        0.5082368808   -1.9854608303   -1.0256426662
C        0.4680002955    1.2316923228    1.1108904982
N        1.1277394461    1.2711681441    2.0662022481
6    
Image 8/11, Energy =  -168.9930507172 (+38.323 kcal/mol)
C       -0.2341505676   -1.1300191167   -0.8855070734
C       -0.6161949488   -0.0084586764   -0.5207253953
H       -1.3159141922    0.8037934850   -0.6223103259
H        0.6243805000   -1.7999499715   -0.8309036767
C        0.4297743780    1.0906520827    0.9616445790
N        1.1121048305    1.0439821974    1.8978018879
6    
Image 9/11, Energy =  -169.0172529220 (+23.136 kcal/mol)
C       -0.2631190487   -1.0982666469   -0.8956470402
C       -0.5196361241    0.1157947437   -0.3770502403
H       -1.3102886281    0.8195161728   -0.6509982208
H        0.6687774145   -1.6564308184   -0.6592253866
C        0.3612160827    0.8488388264    0.8331862581
N        1.0630503007    0.9705477259    1.7497346286
6    
Image 10/11, Energy =  -169.0450280987 (+5.707 kcal/mol)
C       -0.2621558455   -1.0375648643   -0.9849831972
C       -0.4394724183    0.1448813965   -0.3146451553
H       -1.2369288594    0.8199852189   -0.5927880212
H        0.6030705059   -1.5856678970   -0.5514840624
C        0.3482331706    0.6332965578    0.7796522209
N        0.9872534521    1.0250695880    1.6642482151
