6    
Image 0/11, Energy =  -169.0541225047 (+0.000 kcal/mol)
C       -0.3739981687   -1.4835649798   -1.4070811137
C       -0.1593894936   -0.6267231344   -0.5957044914
H        0.0347237090    0.1461263812    0.1365769974
H       -0.5620255952   -2.2351986645   -2.1185513169
C        0.4238299506    1.6832116562    1.5959377344
N        0.6368595980    2.5161487414    2.3888221955
6    
Image 1/11, Energy =  -169.0528884369 (+0.774 kcal/mol)
C       -0.3534713078   -1.4683848507   -1.3781101169
C       -0.2596586352   -0.5245836570   -0.6393108159
H       -0.1211680124    0.2767275203    0.0789774023
H       -0.4206378186   -2.2965842438   -2.0158601214
C        0.4366328055    1.6049549469    1.5757494365
N        0.7183029696    2.4078702838    2.3785542175
6    
Image 2/11, Energy =  -169.0497451744 (+2.747 kcal/mol)
C       -0.3307282090   -1.4450121211   -1.3340170898
C       -0.3636463352   -0.4381082226   -0.6826106116
H       -0.2868025695    0.3919267745    0.0059971449
H       -0.2677690236   -2.3270078191   -1.8945526973
C        0.4473166614    1.5357315132    1.5370636461
N        0.8016294758    2.2824698746    2.3681196070
6    
Image 3/11, Energy =  -169.0456448668 (+5.320 kcal/mol)
C       -0.2968070798   -1.4187652495   -1.2760975277
C       -0.4736847402   -0.3699184935   -0.7266201121
H       -0.4716310843    0.4987452906   -0.0933038341
H       -0.1070316301   -2.3283959652   -1.7540496524
C        0.4510301293    1.4864637335    1.4890275310
N        0.8981244037    2.1318706853    2.3610435944
6    
Image 4/11, Energy =  -169.0409102169 (+8.291 kcal/mol)
C       -0.2520574622   -1.3769532034   -1.2085301192
C       -0.5800396617   -0.3129784433   -0.7623175923
H       -0.6782182367    0.5944990664   -0.2089363973
H        0.0572524826   -2.2979906711   -1.5870117948
C        0.4600283584    1.4464578510    1.4268710612
N        0.9930345167    1.9469654022    2.3399248412
6    
Image 5/11, Energy =  -169.0357707011 (+11.516 kcal/mol)
C       -0.2091086613   -1.3134853021   -1.1226983758
C       -0.6683338569   -0.2619905713   -0.7772849134
H       -0.8842419941    0.6752674441   -0.3225364860
H        0.2214203240   -2.2295662454   -1.4017640881
C        0.4635805436    1.4148153231    1.3358070895
N        1.0766836428    1.7149593548    2.2884767730
6    
Image 6/11, Energy =  -169.0293431464 (+15.549 kcal/mol)
C       -0.1808015344   -1.2358029498   -1.0278767197
C       -0.7236600569   -0.2045356450   -0.7650332730
H       -1.0754712906    0.7414435752   -0.4349157831
H        0.3815319325   -2.1141485828   -1.1897490945
C        0.4654134739    1.3592436036    1.2288740677
N        1.1329874749    1.4538000015    2.1887008015
6    
Image 7/11, Energy =  -169.0167773187 (+23.434 kcal/mol)
C       -0.1827138333   -1.1592291287   -0.9658566535
C       -0.7130397985   -0.1260152151   -0.6988514523
H       -1.2257387867    0.7836117158   -0.5312357072
H        0.5122448940   -1.9584778987   -0.9631736397
C        0.4614591593    1.2320793918    1.1059057396
N        1.1477883649    1.2280311372    2.0532117111
6    
Image 8/11, Energy =  -168.9965204359 (+36.146 kcal/mol)
C       -0.2173582421   -1.1227243142   -0.9698187901
C       -0.6148088342   -0.0136808831   -0.5602057312
H       -1.2933733388    0.7849040461   -0.5864055690
H        0.5689115262   -1.8192038776   -0.8050223382
C        0.4403480101    1.0333883517    0.9857605226
N        1.1162808798    1.1373166785    1.9356919038
6    
Image 9/11, Energy =  -169.0141819140 (+25.063 kcal/mol)
C       -0.2563214504   -1.0854893294   -0.9859677064
C       -0.4875321471    0.0860110646   -0.3945459579
H       -1.2836936043    0.7824958958   -0.5932201096
H        0.5868300503   -1.7387863454   -0.7232007947
C        0.3956884714    0.8426177605    0.8823799379
N        1.0450286825    1.1131509544    1.8145546287
6    
Image 10/11, Energy =  -169.0450280987 (+5.707 kcal/mol)
C       -0.2621558455   -1.0375648643   -0.9849831972
C       -0.4394724183    0.1448813965   -0.3146451553
H       -1.2369288594    0.8199852189   -0.5927880212
H        0.6030705059   -1.5856678970   -0.5514840624
C        0.3482331706    0.6332965578    0.7796522209
N        0.9872534521    1.0250695880    1.6642482151
