6    
Image 0/11, Energy =  -169.0541225047 (+0.000 kcal/mol)
C       -0.3739981687   -1.4835649798   -1.4070811137
C       -0.1593894936   -0.6267231344   -0.5957044914
H        0.0347237090    0.1461263812    0.1365769974
H       -0.5620255952   -2.2351986645   -2.1185513169
C        0.4238299506    1.6832116562    1.5959377344
N        0.6368595980    2.5161487414    2.3888221955
6    
Image 1/11, Energy =  -169.0532005472 (+0.579 kcal/mol)
C       -0.3445423124   -1.4730884522   -1.3694737575
C       -0.2679359081   -0.5355470392   -0.6274790241
H       -0.1459979527    0.2841373462    0.0650102864
H       -0.3962879588   -2.3004119865   -2.0101144744
C        0.3757105729    1.6813484856    1.5342859983
N        0.7790535590    2.3435616466    2.4077709750
6    
Image 2/11, Energy =  -169.0508865493 (+2.031 kcal/mol)
C       -0.3128376489   -1.4527825504   -1.3220953465
C       -0.3756945683   -0.4529103648   -0.6652948628
H       -0.3294069170    0.4073835483   -0.0185700880
H       -0.2284916112   -2.3351707931   -1.8783969615
C        0.3420538165    1.6814432036    1.4872829990
N        0.9043769286    2.1520369572    2.3970742619
6    
Image 3/11, Energy =  -169.0474145255 (+4.209 kcal/mol)
C       -0.2788915950   -1.4178803640   -1.2625826399
C       -0.4797959245   -0.3781298537   -0.7060208977
H       -0.5190558615    0.5164612095   -0.1154006536
H       -0.0600160244   -2.3330902312   -1.7202662122
C        0.3299049395    1.6641667694    1.4478410398
N        1.0078544658    1.9484724709    2.3564293646
6    
Image 4/11, Energy =  -169.0427206115 (+7.155 kcal/mol)
C       -0.2433328659   -1.3657385228   -1.1908882621
C       -0.5783245991   -0.3086914125   -0.7451510815
H       -0.7166308032    0.6119120646   -0.2260720620
H        0.1073399200   -2.2894243800   -1.5344288869
C        0.3406453790    1.6101018723    1.4040334204
N        1.0903029694    1.7418403794    2.2925068721
6    
Image 5/11, Energy =  -169.0366699433 (+10.952 kcal/mol)
C       -0.2096704416   -1.2959098761   -1.1103976456
C       -0.6629761151   -0.2435320541   -0.7737887109
H       -0.9147344111    0.6912535066   -0.3468478864
H        0.2666405565   -2.2013319621   -1.3259105896
C        0.3681929300    1.5051401276    1.3443432707
N        1.1525474822    1.5443802592    2.2126015611
6    
Image 6/11, Energy =  -169.0281013428 (+16.329 kcal/mol)
C       -0.1890169711   -1.2168454934   -1.0350142641
C       -0.7137702386   -0.1772492369   -0.7718570212
H       -1.0956306690    0.7513232300   -0.4652648826
H        0.4070249410   -2.0719002175   -1.1087780567
C        0.4027350549    1.3375234500    1.2574716105
N        1.1886578845    1.3771482686    2.1234426128
6    
Image 7/11, Energy =  -169.0121952162 (+26.310 kcal/mol)
C       -0.2017376535   -1.1533293368   -0.9999380495
C       -0.6936741179   -0.0972610327   -0.6994910234
H       -1.2322415580    0.7846279926   -0.5619003146
H        0.5111606822   -1.9144042035   -0.9064301543
C        0.4332206473    1.1205997237    1.1418539000
N        1.1832720021    1.2597668574    2.0259056402
6    
Image 8/11, Energy =  -168.9962144128 (+36.338 kcal/mol)
C       -0.2428493331   -1.1177146619   -1.0088370354
C       -0.5989899752    0.0006117886   -0.5503326630
H       -1.3001075805    0.7868080910   -0.6172396416
H        0.5690044414   -1.7633688815   -0.7499186207
C        0.4440856191    0.9091544879    1.0117607768
N        1.1288568307    1.1845091767    1.9145671822
6    
Image 9/11, Energy =  -169.0180301512 (+22.648 kcal/mol)
C       -0.2621619611   -1.0847069640   -1.0066651385
C       -0.4908037803    0.0858739830   -0.3955623916
H       -1.2785604436    0.7876070923   -0.6100187924
H        0.5820686725   -1.7057900675   -0.6886779642
C        0.3963070517    0.7821837595    0.8999781222
N        1.0531504641    1.1348321972    1.8009461632
6    
Image 10/11, Energy =  -169.0450280987 (+5.707 kcal/mol)
C       -0.2621558455   -1.0375648643   -0.9849831972
C       -0.4394724183    0.1448813965   -0.3146451553
H       -1.2369288594    0.8199852189   -0.5927880212
H        0.6030705059   -1.5856678970   -0.5514840624
C        0.3482331706    0.6332965578    0.7796522209
N        0.9872534521    1.0250695880    1.6642482151
