6    
Image 0/11, Energy =  -169.0541225047 (+0.000 kcal/mol)
C       -0.3739981687   -1.4835649798   -1.4070811137
C       -0.1593894936   -0.6267231344   -0.5957044914
H        0.0347237090    0.1461263812    0.1365769974
H       -0.5620255952   -2.2351986645   -2.1185513169
C        0.4238299506    1.6832116562    1.5959377344
N        0.6368595980    2.5161487414    2.3888221955
6    
Image 1/11, Energy =  -169.0531162220 (+0.631 kcal/mol)
C       -0.3429541819   -1.4709036167   -1.3666810313
C       -0.2692943363   -0.5308668292   -0.6284167239
H       -0.1517767767    0.2903304432    0.0638182681
H       -0.3907953207   -2.3016295711   -2.0034644244
C        0.3690311933    1.6797946368    1.5305021638
N        0.7857894224    2.3332749372    2.4042417516
6    
Image 2/11, Energy =  -169.0506358717 (+2.188 kcal/mol)
C       -0.3098343596   -1.4476344219   -1.3171285069
C       -0.3790984802   -0.4447047510   -0.6668793430
H       -0.3413843707    0.4180467406   -0.0216026529
H       -0.2172743633   -2.3352804896   -1.8644717445
C        0.3312944473    1.6794629916    1.4824375030
N        0.9162971267    2.1301099308    2.3876447468
6    
Image 3/11, Energy =  -169.0469438886 (+4.505 kcal/mol)
C       -0.2739712788   -1.4095236798   -1.2549376385
C       -0.4868778358   -0.3666482376   -0.7081712619
H       -0.5373136174    0.5305466434   -0.1221524925
H       -0.0427745120   -2.3289983626   -1.6979848764
C        0.3172504893    1.6585914922    1.4440046676
N        1.0236867553    1.9160321451    2.3392416030
6    
Image 4/11, Energy =  -169.0422302137 (+7.463 kcal/mol)
C       -0.2383181924   -1.3571952100   -1.1835010940
C       -0.5848856616   -0.2996448777   -0.7465163189
H       -0.7328841122    0.6233242036   -0.2347295002
H        0.1229010694   -2.2820292544   -1.5130891643
C        0.3287857259    1.6015822001    1.4044959878
N        1.1044011720    1.7139629391    2.2733400900
6    
Image 5/11, Energy =  -169.0362587530 (+11.210 kcal/mol)
C       -0.2061793187   -1.2891697274   -1.1043414653
C       -0.6668725654   -0.2372429010   -0.7753963766
H       -0.9269259779    0.6981679428   -0.3552619813
H        0.2786768033   -2.1926573254   -1.3093348265
C        0.3564416937    1.4945952321    1.3491724267
N        1.1648593665    1.5263067797    2.1951622225
6    
Image 6/11, Energy =  -169.0278768701 (+16.469 kcal/mol)
C       -0.1889137066   -1.2137477582   -1.0338010201
C       -0.7149083860   -0.1738185025   -0.7738672122
H       -1.1031879358    0.7530014246   -0.4709195983
H        0.4139452823   -2.0647355199   -1.0977038797
C        0.3952058925    1.3323337535    1.2626831086
N        1.1978588554    1.3669666036    2.1136086006
6    
Image 7/11, Energy =  -169.0120020564 (+26.431 kcal/mol)
C       -0.2024310926   -1.1521348386   -1.0002870049
C       -0.6938126774   -0.0952948409   -0.7005164788
H       -1.2364025004    0.7843808527   -0.5643602913
H        0.5146924112   -1.9085175396   -0.8983142537
C        0.4307755658    1.1199323849    1.1418282973
N        1.1871782954    1.2516339825    2.0216497299
6    
Image 8/11, Energy =  -168.9962144128 (+36.338 kcal/mol)
C       -0.2428493331   -1.1177146619   -1.0088370354
C       -0.5989899752    0.0006117886   -0.5503326630
H       -1.3001075805    0.7868080910   -0.6172396416
H        0.5690044414   -1.7633688815   -0.7499186207
C        0.4440856191    0.9091544879    1.0117607768
N        1.1288568307    1.1845091767    1.9145671822
6    
Image 9/11, Energy =  -169.0180301512 (+22.648 kcal/mol)
C       -0.2621619611   -1.0847069640   -1.0066651385
C       -0.4908037803    0.0858739830   -0.3955623916
H       -1.2785604436    0.7876070923   -0.6100187924
H        0.5820686725   -1.7057900675   -0.6886779642
C        0.3963070517    0.7821837595    0.8999781222
N        1.0531504641    1.1348321972    1.8009461632
6    
Image 10/11, Energy =  -169.0450280987 (+5.707 kcal/mol)
C       -0.2621558455   -1.0375648643   -0.9849831972
C       -0.4394724183    0.1448813965   -0.3146451553
H       -1.2369288594    0.8199852189   -0.5927880212
H        0.6030705059   -1.5856678970   -0.5514840624
C        0.3482331706    0.6332965578    0.7796522209
N        0.9872534521    1.0250695880    1.6642482151
