6    
Image 0/11, Energy =  -169.0541225047 (+0.000 kcal/mol)
C       -0.3739981687   -1.4835649798   -1.4070811137
C       -0.1593894936   -0.6267231344   -0.5957044914
H        0.0347237090    0.1461263812    0.1365769974
H       -0.5620255952   -2.2351986645   -2.1185513169
C        0.4238299506    1.6832116562    1.5959377344
N        0.6368595980    2.5161487414    2.3888221955
6    
Image 1/11, Energy =  -169.0532782741 (+0.530 kcal/mol)
C       -0.3511987850   -1.4731463642   -1.3767776261
C       -0.2682093464   -0.5377772447   -0.6315154351
H       -0.1367693929    0.2748815592    0.0680200619
H       -0.4030399163   -2.3010127476   -2.0175905342
C        0.4003100193    1.6641300339    1.5506213919
N        0.7589074205    2.3729247640    2.4072421449
6    
Image 2/11, Energy =  -169.0510293590 (+1.941 kcal/mol)
C       -0.3257204591   -1.4544481519   -1.3366186970
C       -0.3766206633   -0.4581099514   -0.6743797944
H       -0.3137803644    0.3911778859   -0.0123516364
H       -0.2403956180   -2.3382455375   -1.8935608495
C        0.3841353329    1.6470289345    1.5092798491
N        0.8723817708    2.2125968215    2.4076311299
6    
Image 3/11, Energy =  -169.0476098927 (+4.087 kcal/mol)
C       -0.2945945895   -1.4259093186   -1.2826925190
C       -0.4815499521   -0.3857721451   -0.7165805485
H       -0.4982952891    0.4963287564   -0.1053556386
H       -0.0765084120   -2.3396347925   -1.7445256557
C        0.3777661741    1.6248451922    1.4643747563
N        0.9731820677    2.0301423090    2.3847796058
6    
Image 4/11, Energy =  -169.0431561125 (+6.882 kcal/mol)
C       -0.2583718193   -1.3784730471   -1.2152947348
C       -0.5782106039   -0.3230627939   -0.7511195720
H       -0.6885660466    0.5904323499   -0.2100444050
H        0.0852058927   -2.3025052202   -1.5683842193
C        0.3834827902    1.5861858967    1.4097543624
N        1.0564597863    1.8274228161    2.3350885678
6    
Image 5/11, Energy =  -169.0375714528 (+10.386 kcal/mol)
C       -0.2219410286   -1.3136578178   -1.1343876020
C       -0.6587652511   -0.2625681962   -0.7750670126
H       -0.8803076817    0.6698255183   -0.3226601047
H        0.2402026740   -2.2229870329   -1.3684098020
C        0.4015370982    1.5135861056    1.3412183883
N        1.1192741886    1.6158014247    2.2593061316
6    
Image 6/11, Energy =  -169.0297312996 (+15.306 kcal/mol)
C       -0.1962510109   -1.2366696694   -1.0517844672
C       -0.7096612198   -0.1953155246   -0.7735668213
H       -1.0641767078    0.7341406374   -0.4382260287
H        0.3826730436   -2.0996028753   -1.1518543128
C        0.4293427466    1.3767774354    1.2505030146
N        1.1580731486    1.4206699980    2.1649286137
6    
Image 7/11, Energy =  -169.0139822953 (+25.188 kcal/mol)
C       -0.2033049491   -1.1614817663   -0.9992256549
C       -0.6979253489   -0.1076885333   -0.7073043816
H       -1.2249424999    0.7762961567   -0.5494748973
H        0.5047004433   -1.9264032866   -0.9224342151
C        0.4557345906    1.1612859214    1.1277044529
N        1.1657377654    1.2579915092    2.0507346942
6    
Image 8/11, Energy =  -168.9961667231 (+36.368 kcal/mol)
C       -0.2464663806   -1.1155250805   -0.9991121577
C       -0.5972988768    0.0131023133   -0.5462141982
H       -1.3193066261    0.7804151676   -0.6290290916
H        0.5804936485   -1.7358671438   -0.7234982955
C        0.4563136245    0.9092203601    0.9865951728
N        1.1262646128    1.1486543841    1.9112585684
6    
Image 9/11, Energy =  -169.0166762789 (+23.498 kcal/mol)
C       -0.2618041802   -1.0865978061   -0.9973298907
C       -0.5003944732    0.0902290295   -0.4087770241
H       -1.2981979233    0.7856843878   -0.6195416862
H        0.5932041927   -1.6885830975   -0.6708621520
C        0.4073624095    0.7888131981    0.8902602687
N        1.0598299777    1.1104542888    1.8062504827
6    
Image 10/11, Energy =  -169.0450280987 (+5.707 kcal/mol)
C       -0.2621558455   -1.0375648643   -0.9849831972
C       -0.4394724183    0.1448813965   -0.3146451553
H       -1.2369288594    0.8199852189   -0.5927880212
H        0.6030705059   -1.5856678970   -0.5514840624
C        0.3482331706    0.6332965578    0.7796522209
N        0.9872534521    1.0250695880    1.6642482151
