6    
Image 0/11, Energy =  -169.0541225047 (+0.000 kcal/mol)
C       -0.3739981687   -1.4835649798   -1.4070811137
C       -0.1593894936   -0.6267231344   -0.5957044914
H        0.0347237090    0.1461263812    0.1365769974
H       -0.5620255952   -2.2351986645   -2.1185513169
C        0.4238299506    1.6832116562    1.5959377344
N        0.6368595980    2.5161487414    2.3888221955
6    
Image 1/11, Energy =  -169.0532682590 (+0.536 kcal/mol)
C       -0.3522036120   -1.4723587025   -1.3758332915
C       -0.2675551834   -0.5378771601   -0.6326941695
H       -0.1360732849    0.2745919313    0.0689806549
H       -0.4032087966   -2.3005979336   -2.0178318054
C        0.4020546298    1.6617733210    1.5511153581
N        0.7569862463    2.3744685444    2.4062632567
6    
Image 2/11, Energy =  -169.0510059985 (+1.956 kcal/mol)
C       -0.3271100709   -1.4545849530   -1.3373940070
C       -0.3757878505   -0.4573472001   -0.6752128415
H       -0.3129111183    0.3904825205   -0.0119152745
H       -0.2410270174   -2.3378727908   -1.8935246646
C        0.3870062229    1.6423743628    1.5106013353
N        0.8698298329    2.2169480616    2.4074454538
6    
Image 3/11, Energy =  -169.0475377525 (+4.132 kcal/mol)
C       -0.2961301128   -1.4232495758   -1.2831074329
C       -0.4809599489   -0.3880706437   -0.7179902746
H       -0.4973287515    0.4963006775   -0.1051256798
H       -0.0774016707   -2.3399465505   -1.7449589955
C        0.3813892959    1.6183982559    1.4653336767
N        0.9704311872    2.0365678380    2.3858487062
6    
Image 4/11, Energy =  -169.0431069361 (+6.912 kcal/mol)
C       -0.2595050941   -1.3788105081   -1.2171890036
C       -0.5782132477   -0.3231828145   -0.7509099778
H       -0.6875176592    0.5899862804   -0.2095180421
H        0.0842848785   -2.3025004761   -1.5693479673
C        0.3872805365    1.5808438145    1.4102372338
N        1.0536705853    1.8336637053    2.3367277561
6    
Image 5/11, Energy =  -169.0375298883 (+10.412 kcal/mol)
C       -0.2228702824   -1.3156507296   -1.1365293604
C       -0.6588103879   -0.2617478112   -0.7742315427
H       -0.8800365638    0.6692594815   -0.3222896102
H        0.2399524639   -2.2229375291   -1.3691484468
C        0.4036532391    1.5111243059    1.3399749369
N        1.1181115305    1.6199522843    2.2622240218
6    
Image 6/11, Energy =  -169.0297652042 (+15.284 kcal/mol)
C       -0.1973506869   -1.2375782325   -1.0535760103
C       -0.7081092397   -0.1962636224   -0.7727261229
H       -1.0636331580    0.7336314823   -0.4365799146
H        0.3820738351   -2.1012456863   -1.1535342762
C        0.4302613719    1.3786207217    1.2492985922
N        1.1567578776    1.4228353386    2.1671177302
6    
Image 7/11, Energy =  -169.0142646894 (+25.011 kcal/mol)
C       -0.2022182832   -1.1634361658   -0.9992185042
C       -0.6973996382   -0.1081824913   -0.7077071338
H       -1.2225787472    0.7755685023   -0.5459165323
H        0.5025928094   -1.9310962519   -0.9278919037
C        0.4561452039    1.1665112367    1.1281218496
N        1.1634586567    1.2606351712    2.0526122227
6    
Image 8/11, Energy =  -168.9961437735 (+36.382 kcal/mol)
C       -0.2453650133   -1.1147996413   -0.9962332159
C       -0.5979361694    0.0135861639   -0.5472499537
H       -1.3206788615    0.7813834553   -0.6285009622
H        0.5814970073   -1.7378868721   -0.7246601276
C        0.4570688123    0.9105545809    0.9850940864
N        1.1254142270    1.1471623141    1.9115501713
6    
Image 9/11, Energy =  -169.0160490483 (+23.891 kcal/mol)
C       -0.2619386093   -1.0876321781   -0.9972750158
C       -0.5005618944    0.0901695439   -0.4101910914
H       -1.2990225702    0.7862814600   -0.6183772670
H        0.5930574246   -1.6940632404   -0.6751234672
C        0.4093418331    0.7925388700    0.8919496681
N        1.0591238194    1.1127055451    1.8090171718
6    
Image 10/11, Energy =  -169.0450280987 (+5.707 kcal/mol)
C       -0.2621558455   -1.0375648643   -0.9849831972
C       -0.4394724183    0.1448813965   -0.3146451553
H       -1.2369288594    0.8199852189   -0.5927880212
H        0.6030705059   -1.5856678970   -0.5514840624
C        0.3482331706    0.6332965578    0.7796522209
N        0.9872534521    1.0250695880    1.6642482151
