6    
Image 0/11, Energy =  -169.0541225047 (+0.000 kcal/mol)
C       -0.3739981687   -1.4835649798   -1.4070811137
C       -0.1593894936   -0.6267231344   -0.5957044914
H        0.0347237090    0.1461263812    0.1365769974
H       -0.5620255952   -2.2351986645   -2.1185513169
C        0.4238299506    1.6832116562    1.5959377344
N        0.6368595980    2.5161487414    2.3888221955
6    
Image 1/11, Energy =  -169.0531768636 (+0.593 kcal/mol)
C       -0.3439613744   -1.4722731644   -1.3682704815
C       -0.2680072336   -0.5342163106   -0.6280346825
H       -0.1477325464    0.2862174704    0.0649386409
H       -0.3947381909   -2.3009668128   -2.0080991686
C        0.3730910957    1.6812023571    1.5327647062
N        0.7813482496    2.3400364607    2.4067009892
6    
Image 2/11, Energy =  -169.0508079487 (+2.080 kcal/mol)
C       -0.3116379884   -1.4506663549   -1.3201874840
C       -0.3763272449   -0.4506396172   -0.6654595405
H       -0.3333019999    0.4114230125   -0.0193602056
H       -0.2249204781   -2.3354039758   -1.8737527604
C        0.3375281632    1.6816062619    1.4850723386
N        0.9086595482    2.1436806742    2.3936876543
6    
Image 3/11, Energy =  -169.0472613096 (+4.305 kcal/mol)
C       -0.2768257138   -1.4147716832   -1.2603282832
C       -0.4822194215   -0.3743326602   -0.7058668056
H       -0.5250441580    0.5219911057   -0.1175272367
H       -0.0542276532   -2.3320378327   -1.7124293512
C        0.3248642797    1.6629888623    1.4459400895
N        1.0134526670    1.9361622090    2.3502115883
6    
Image 4/11, Energy =  -169.0425213143 (+7.280 kcal/mol)
C       -0.2408777841   -1.3621464193   -1.1879825710
C       -0.5812579258   -0.3048329859   -0.7450454294
H       -0.7233280254    0.6173333944   -0.2297367569
H        0.1138084685   -2.2866052664   -1.5253398035
C        0.3354073471    1.6070626573    1.4039246070
N        1.0962479204    1.7291886207    2.2841799539
6    
Image 5/11, Energy =  -169.0364875764 (+11.066 kcal/mol)
C       -0.2078926349   -1.2931086105   -1.1072714268
C       -0.6645677521   -0.2406251519   -0.7741455857
H       -0.9197565604    0.6946379008   -0.3503785860
H        0.2716343275   -2.1977506444   -1.3191814594
C        0.3630823011    1.5002261481    1.3461560579
N        1.1575003199    1.5366203587    2.2048209994
6    
Image 6/11, Energy =  -169.0279948606 (+16.395 kcal/mol)
C       -0.1886809251   -1.2152627922   -1.0339627131
C       -0.7143159900   -0.1755038051   -0.7729365912
H       -1.0991079331    0.7521927688   -0.4679762682
H        0.4101477443   -2.0685285793   -1.1038543995
C        0.3986594699    1.3344427127    1.2603493536
N        1.1932976358    1.3726596960    2.1183806172
6    
Image 7/11, Energy =  -169.0121182160 (+26.358 kcal/mol)
C       -0.2022293108   -1.1527380169   -1.0004088080
C       -0.6936561369   -0.0961824036   -0.7006512385
H       -1.2345713800    0.7842255970   -0.5630956181
H        0.5129615359   -1.9110986720   -0.9017226370
C        0.4316352561    1.1204833293    1.1422338942
N        1.1858600378    1.2553101670    2.0236444059
6    
Image 8/11, Energy =  -168.9962144128 (+36.338 kcal/mol)
C       -0.2428493331   -1.1177146619   -1.0088370354
C       -0.5989899752    0.0006117886   -0.5503326630
H       -1.3001075805    0.7868080910   -0.6172396416
H        0.5690044414   -1.7633688815   -0.7499186207
C        0.4440856191    0.9091544879    1.0117607768
N        1.1288568307    1.1845091767    1.9145671822
6    
Image 9/11, Energy =  -169.0180301512 (+22.648 kcal/mol)
C       -0.2621619611   -1.0847069640   -1.0066651385
C       -0.4908037803    0.0858739830   -0.3955623916
H       -1.2785604436    0.7876070923   -0.6100187924
H        0.5820686725   -1.7057900675   -0.6886779642
C        0.3963070517    0.7821837595    0.8999781222
N        1.0531504641    1.1348321972    1.8009461632
6    
Image 10/11, Energy =  -169.0450280987 (+5.707 kcal/mol)
C       -0.2621558455   -1.0375648643   -0.9849831972
C       -0.4394724183    0.1448813965   -0.3146451553
H       -1.2369288594    0.8199852189   -0.5927880212
H        0.6030705059   -1.5856678970   -0.5514840624
C        0.3482331706    0.6332965578    0.7796522209
N        0.9872534521    1.0250695880    1.6642482151
