6    
Image 0/11, Energy =  -169.0541225047 (+0.000 kcal/mol)
C       -0.3739981687   -1.4835649798   -1.4070811137
C       -0.1593894936   -0.6267231344   -0.5957044914
H        0.0347237090    0.1461263812    0.1365769974
H       -0.5620255952   -2.2351986645   -2.1185513169
C        0.4238299506    1.6832116562    1.5959377344
N        0.6368595980    2.5161487414    2.3888221955
6    
Image 1/11, Energy =  -169.0532713524 (+0.534 kcal/mol)
C       -0.3484598141   -1.4741233039   -1.3745725034
C       -0.2678413041   -0.5381272886   -0.6307921612
H       -0.1412180460    0.2764282976    0.0662271829
H       -0.4009252874   -2.3008026785   -2.0156652340
C        0.3905090504    1.6742446609    1.5447567479
N        0.7679354007    2.3623803129    2.4100459714
6    
Image 2/11, Energy =  -169.0510460946 (+1.930 kcal/mol)
C       -0.3188856516   -1.4544032203   -1.3319758365
C       -0.3761224162   -0.4597331184   -0.6691644514
H       -0.3209813618    0.3955181934   -0.0163412421
H       -0.2370378443   -2.3369576872   -1.8892889092
C        0.3654842617    1.6683505389    1.4996452890
N        0.8875430115    2.1872252947    2.4071251523
6    
Image 3/11, Energy =  -169.0476557201 (+4.058 kcal/mol)
C       -0.2860986402   -1.4215733557   -1.2774396776
C       -0.4796480503   -0.3884189789   -0.7070741432
H       -0.5061879594    0.5029612418   -0.1109349800
H       -0.0724063187   -2.3374980892   -1.7362669868
C        0.3554476320    1.6502161594    1.4554999192
N        0.9888933359    1.9943130241    2.3762158689
6    
Image 4/11, Energy =  -169.0431870768 (+6.862 kcal/mol)
C       -0.2521585829   -1.3752485066   -1.2070926173
C       -0.5742427655   -0.3211909934   -0.7442658873
H       -0.6966996176    0.5970712851   -0.2163371177
H        0.0901552030   -2.2986841562   -1.5594118260
C        0.3628512766    1.6055908314    1.4068535665
N        1.0700944861    1.7924615412    2.3202538815
6    
Image 5/11, Energy =  -169.0373872387 (+10.502 kcal/mol)
C       -0.2200085556   -1.3107065464   -1.1264566201
C       -0.6563640119   -0.2568760944   -0.7716584785
H       -0.8902161167    0.6775351975   -0.3323623243
H        0.2478871587   -2.2164807737   -1.3575546505
C        0.3877030640    1.5151937618    1.3440146261
N        1.1309984617    1.5913344565    2.2440174461
6    
Image 6/11, Energy =  -169.0289554488 (+15.793 kcal/mol)
C       -0.1981196550   -1.2298298151   -1.0474507708
C       -0.7119405918   -0.1877183587   -0.7723194845
H       -1.0800298033    0.7425032549   -0.4531173412
H        0.3965984119   -2.0847481675   -1.1291194028
C        0.4214449753    1.3621280735    1.2526297169
N        1.1720466637    1.3976650141    2.1493772808
6    
Image 7/11, Energy =  -169.0125700684 (+26.075 kcal/mol)
C       -0.2074761149   -1.1586337644   -1.0032207145
C       -0.6947636428   -0.1000835876   -0.7020052836
H       -1.2330908504    0.7804794718   -0.5586382567
H        0.5126191850   -1.9118221758   -0.9032392320
C        0.4474534888    1.1406185387    1.1300158601
N        1.1752579362    1.2494415183    2.0370876250
6    
Image 8/11, Energy =  -168.9961807607 (+36.359 kcal/mol)
C       -0.2453277661   -1.1184215543   -1.0083070886
C       -0.5966989564    0.0035231789   -0.5486437228
H       -1.3042076319    0.7842120414   -0.6181153811
H        0.5723485287   -1.7550521173   -0.7413908482
C        0.4466013957    0.9143760523    1.0023261308
N        1.1272844325    1.1713623998    1.9141309082
6    
Image 9/11, Energy =  -169.0192260500 (+21.898 kcal/mol)
C       -0.2643864001   -1.0842090140   -1.0059270390
C       -0.4868910715    0.0900986929   -0.3928603811
H       -1.2814496241    0.7842565028   -0.6123860445
H        0.5845795763   -1.6988312040   -0.6803728121
C        0.3967441840    0.7841071655    0.8922004480
N        1.0514033383    1.1245778576    1.7993458274
6    
Image 10/11, Energy =  -169.0450280987 (+5.707 kcal/mol)
C       -0.2621558455   -1.0375648643   -0.9849831972
C       -0.4394724183    0.1448813965   -0.3146451553
H       -1.2369288594    0.8199852189   -0.5927880212
H        0.6030705059   -1.5856678970   -0.5514840624
C        0.3482331706    0.6332965578    0.7796522209
N        0.9872534521    1.0250695880    1.6642482151
