6    
Image 0/11, Energy =  -169.0541225045 (+0.000 kcal/mol)
C       -0.3739981793   -1.4835649428   -1.4070811878
C       -0.1593894830   -0.6267231609   -0.5957044385
H        0.0347237196    0.1461263335    0.1365770662
H       -0.5620256323   -2.2351985692   -2.1185514810
C        0.4238299770    1.6832115821    1.5959378403
N        0.6368596033    2.5161487572    2.3888222008
6    
Image 1/11, Energy =  -169.0535365376 (+0.368 kcal/mol)
C       -0.3516803236   -1.4839632576   -1.3869940077
C       -0.2539689065   -0.5547809182   -0.6352362752
H       -0.1257519768    0.2601070521    0.0638629206
H       -0.4242973616   -2.3068989105   -2.0369141367
C        0.3776982860    1.7024803429    1.5662381370
N        0.7780002797    2.3830556899    2.4290433642
6    
Image 2/11, Energy =  -169.0520861424 (+1.278 kcal/mol)
C       -0.3270617809   -1.4752206076   -1.3569480322
C       -0.3384283449   -0.4931145502   -0.6690729328
H       -0.2747029193    0.3577526991   -0.0069861389
H       -0.2926440646   -2.3475639148   -1.9427756468
C        0.3383629089    1.7243132224    1.5407734976
N        0.8944741984    2.2338331500    2.4350092569
6    
Image 3/11, Energy =  -169.0497272909 (+2.758 kcal/mol)
C       -0.2943591736   -1.4517882884   -1.3058175718
C       -0.4162499228   -0.4292260147   -0.6923904672
H       -0.4282056658    0.4564263901   -0.0802400242
H       -0.1552774841   -2.3583743630   -1.8189205775
C        0.2898850237    1.7565627502    1.5050556835
N        1.0042072208    2.0263995265    2.3923129592
6    
Image 4/11, Energy =  -169.0459228419 (+5.145 kcal/mol)
C       -0.2543695604   -1.4093389983   -1.2307531780
C       -0.5136549958   -0.3553385210   -0.7244664083
H       -0.6263147464    0.5629651492   -0.1859041814
H        0.0158212264   -2.3385247183   -1.6398503128
C        0.2758527300    1.7713834027    1.4759443643
N        1.1026653443    1.7688536853    2.3050297170
6    
Image 5/11, Energy =  -169.0409049204 (+8.294 kcal/mol)
C       -0.2119740053   -1.3467273366   -1.1382062003
C       -0.6200299582   -0.2867658861   -0.7627043260
H       -0.8555571827    0.6525230713   -0.3246217826
H        0.1970348645   -2.2721235985   -1.4199777931
C        0.3096661651    1.7503436476    1.4510525820
N        1.1808601138    1.5027501006    2.1944575203
6    
Image 6/11, Energy =  -169.0352384526 (+11.850 kcal/mol)
C       -0.1752031960   -1.2579104755   -1.0354104933
C       -0.7203033109   -0.2210841794   -0.7995938239
H       -1.0892065357    0.7162664241   -0.4797760533
H        0.3668747529   -2.1466834230   -1.1730502968
C        0.3599578483    1.6488825843    1.4209838617
N        1.2578804345    1.2605290631    2.0668468045
6    
Image 7/11, Energy =  -169.0287311422 (+15.933 kcal/mol)
C       -0.1541148529   -1.1597991278   -0.9569283742
C       -0.7925376720   -0.1598951543   -0.8221035533
H       -1.2658876830    0.7545424313   -0.6015895597
H        0.5007975593   -1.9801164144   -0.9504909499
C        0.3913743457    1.4038758540    1.3330234604
N        1.3203682934    1.1413924021    1.9980889752
6    
Image 8/11, Energy =  -169.0140672750 (+25.135 kcal/mol)
C       -0.1775690927   -1.1171966078   -0.9543366669
C       -0.7516535755   -0.0864808699   -0.7354691496
H       -1.3183995220    0.7860482140   -0.6209825638
H        0.5637394335   -1.8456993508   -0.8098452067
C        0.4043044790    1.1233440004    1.1727333010
N        1.2795782676    1.1399846043    1.9479002840
6    
Image 9/11, Energy =  -168.9961670894 (+36.368 kcal/mol)
C       -0.2393257481   -1.1101834668   -1.0043533952
C       -0.6123338421    0.0030150156   -0.5448095538
H       -1.3191517264    0.7831019620   -0.6224974973
H        0.5753118097   -1.7453222272   -0.7279474452
C        0.4210509106    0.9061215163    1.0235362422
N        1.1744485861    1.1632671903    1.8760716474
6    
Image 10/11, Energy =  -169.0450280986 (+5.707 kcal/mol)
C       -0.2621558402   -1.0375648166   -0.9849832183
C       -0.4394815308    0.1448746231   -0.3146355878
H       -1.2369564931    0.8199646233   -0.5927588847
H        0.6030896833   -1.5856535457   -0.5515042875
C        0.3482367849    0.6332992196    0.7796484267
N        0.9872674012    1.0250798964    1.6642335463
