6    
Image 0/11, Energy =  -169.0541225047 (+0.000 kcal/mol)
C       -0.3739981687   -1.4835649798   -1.4070811137
C       -0.1593894936   -0.6267231344   -0.5957044914
H        0.0347237090    0.1461263812    0.1365769974
H       -0.5620255952   -2.2351986645   -2.1185513169
C        0.4238299506    1.6832116562    1.5959377344
N        0.6368595980    2.5161487414    2.3888221955
6    
Image 1/11, Energy =  -169.0521922288 (+1.211 kcal/mol)
C       -0.3643009346   -1.4564319472   -1.3585723691
C       -0.2656894003   -0.5237442975   -0.6191066549
H       -0.1012121533    0.2850508025    0.0721067705
H       -0.4099632958   -2.2687825306   -2.0057197419
C        0.4378824520    1.5738503619    1.5596840918
N        0.7032833358    2.3900576108    2.3516079047
6    
Image 2/11, Energy =  -169.0484098627 (+3.585 kcal/mol)
C       -0.3386924696   -1.4376690786   -1.3275060000
C       -0.3642977368   -0.4462192538   -0.6634133244
H       -0.2572302390    0.4032385792   -0.0167649101
H       -0.2770456201   -2.3077798827   -1.8943365084
C        0.4651153500    1.4803765285    1.5625924603
N        0.7721507184    2.3080531065    2.3394282816
6    
Image 3/11, Energy =  -169.0438909569 (+6.420 kcal/mol)
C       -0.3008405516   -1.4080988918   -1.2897178860
C       -0.4518166859   -0.3805657806   -0.6989136192
H       -0.4602501850    0.5107521314   -0.1102715538
H       -0.1302755018   -2.3227509967   -1.7580308658
C        0.4933135930    1.4140414178    1.5230226807
N        0.8498693282    2.1866221183    2.3339112413
6    
Image 4/11, Energy =  -169.0387531912 (+9.644 kcal/mol)
C       -0.2619025960   -1.3634302623   -1.2201484415
C       -0.5317661084   -0.3212679948   -0.7208082959
H       -0.6867364513    0.5995541096   -0.2144382266
H        0.0377191430   -2.2887597280   -1.5916419809
C        0.4862330576    1.3984129960    1.4259268470
N        0.9564529502    1.9754908825    2.3211100967
6    
Image 5/11, Energy =  -169.0325570681 (+13.533 kcal/mol)
C       -0.2256524451   -1.3069400538   -1.1349659401
C       -0.6045796352   -0.2521006179   -0.7302170633
H       -0.9170241523    0.6627875073   -0.3469129084
H        0.2093744993   -2.2050166876   -1.3911195529
C        0.4788370947    1.3723971153    1.3259662877
N        1.0590446348    1.7288727416    2.2772491768
6    
Image 6/11, Energy =  -169.0253865838 (+18.032 kcal/mol)
C       -0.1996427525   -1.2364105050   -1.0459215736
C       -0.6576721332   -0.1929874291   -0.7178143694
H       -1.0939361017    0.7057304114   -0.4603788808
H        0.3536026821   -2.0908550429   -1.1976434722
C        0.4779725685    1.3219456311    1.2253826195
N        1.1196757370    1.4925769385    2.1963756763
6    
Image 7/11, Energy =  -169.0138633714 (+25.263 kcal/mol)
C       -0.1948522144   -1.1652629359   -0.9520448702
C       -0.6725694708   -0.1237870139   -0.6646292386
H       -1.2183204863    0.7463385479   -0.5463988747
H        0.4839757329   -1.9455873639   -1.0064792968
C        0.4644918798    1.2346473186    1.1024281324
N        1.1372745612    1.2536514484    2.0671241465
6    
Image 8/11, Energy =  -168.9942558238 (+37.567 kcal/mol)
C       -0.2199040705   -1.1076681832   -0.9034753572
C       -0.6212849537   -0.0224539131   -0.5427759217
H       -1.2920538607    0.7763562876   -0.6112187924
H        0.5873237661   -1.7818855671   -0.8131121450
C        0.4268702707    1.0683943406    0.9582857093
N        1.1190488479    1.0672570363    1.9122965040
6    
Image 9/11, Energy =  -169.0207485532 (+20.942 kcal/mol)
C       -0.2586147944   -1.0822910523   -0.9317713493
C       -0.4950818422    0.1144650226   -0.3658004492
H       -1.2931615114    0.7829891407   -0.6233650642
H        0.6215168538   -1.6871987967   -0.6937464490
C        0.3752298299    0.8368410877    0.8359473609
N        1.0501114642    1.0351945996    1.7787359485
6    
Image 10/11, Energy =  -169.0450280987 (+5.707 kcal/mol)
C       -0.2621558455   -1.0375648643   -0.9849831972
C       -0.4394724183    0.1448813965   -0.3146451553
H       -1.2369288594    0.8199852189   -0.5927880212
H        0.6030705059   -1.5856678970   -0.5514840624
C        0.3482331706    0.6332965578    0.7796522209
N        0.9872534521    1.0250695880    1.6642482151
