6    
Image 0/11, Energy =  -169.0541225047 (+0.000 kcal/mol)
C       -0.3739981687   -1.4835649798   -1.4070811137
C       -0.1593894936   -0.6267231344   -0.5957044914
H        0.0347237090    0.1461263812    0.1365769974
H       -0.5620255952   -2.2351986645   -2.1185513169
C        0.4238299506    1.6832116562    1.5959377344
N        0.6368595980    2.5161487414    2.3888221955
6    
Image 1/11, Energy =  -169.0514129556 (+1.700 kcal/mol)
C       -0.3612035142   -1.4487514301   -1.3622987947
C       -0.2855045794   -0.5317658504   -0.5983503148
H       -0.0806516467    0.3060056661    0.0740598473
H       -0.4071294115   -2.2729306245   -2.0098764060
C        0.4337126037    1.5652582964    1.5524744144
N        0.7007765524    2.3821839425    2.3439912545
6    
Image 2/11, Energy =  -169.0474114884 (+4.211 kcal/mol)
C       -0.3311804839   -1.4318745915   -1.3350824296
C       -0.3825814066   -0.4560715055   -0.6437129603
H       -0.2445185597    0.4244362509   -0.0291364523
H       -0.2772364197   -2.3156512635   -1.8969732759
C        0.4665997526    1.4714110674    1.5744766870
N        0.7689171211    2.3077500415    2.3304284304
6    
Image 3/11, Energy =  -169.0434747716 (+6.682 kcal/mol)
C       -0.2984503456   -1.4043844999   -1.2986384586
C       -0.4494237206   -0.3854428705   -0.6919747975
H       -0.4570663791    0.5177978917   -0.1114834208
H       -0.1377704049   -2.3283194012   -1.7604323016
C        0.5066775429    1.4015878215    1.5380217484
N        0.8360333037    2.1987610556    2.3245072264
6    
Image 4/11, Energy =  -169.0374398611 (+10.469 kcal/mol)
C       -0.2711659193   -1.3607855798   -1.2329701532
C       -0.5108136392   -0.3239169561   -0.6963762942
H       -0.6933199298    0.6097635521   -0.2143010536
H        0.0375536409   -2.2923584378   -1.5929167577
C        0.4877862790    1.3896982217    1.4192089405
N        0.9499595632    1.9775992037    2.3173553173
6    
Image 5/11, Energy =  -169.0308519755 (+14.602 kcal/mol)
C       -0.2410124017   -1.3060102645   -1.1484441977
C       -0.5776547708   -0.2486070412   -0.7071339886
H       -0.9343206698    0.6779373251   -0.3496379212
H        0.2179587399   -2.2165568876   -1.3904638377
C        0.4792912079    1.3647020628    1.3232062248
N        1.0557378902    1.7285348106    2.2724737204
6    
Image 6/11, Energy =  -169.0241802390 (+18.789 kcal/mol)
C       -0.2169371862   -1.2466529929   -1.0597579750
C       -0.6295403865   -0.1769543273   -0.7029208346
H       -1.1167003203    0.7194617089   -0.4582516221
H        0.3663494933   -2.1094587798   -1.2001298774
C        0.4820923453    1.3150509389    1.2283628624
N        1.1147360546    1.4985534565    2.1926974466
6    
Image 7/11, Energy =  -169.0132277015 (+25.662 kcal/mol)
C       -0.2067780657   -1.1846588206   -0.9646652246
C       -0.6541037473   -0.1060495722   -0.6441624670
H       -1.2317281611    0.7583706120   -0.5474224782
H        0.4942614447   -1.9653751472   -1.0183715048
C        0.4669714981    1.2331328446    1.1078380722
N        1.1313770347    1.2645800842    2.0667836014
6    
Image 8/11, Energy =  -168.9947429168 (+37.261 kcal/mol)
C       -0.2218068740   -1.1283539935   -0.8930746378
C       -0.6249567236   -0.0051392942   -0.5292876096
H       -1.3021091769    0.7880468473   -0.6174106527
H        0.6051845090   -1.7890069044   -0.8238213702
C        0.4297602581    1.0816268093    0.9616476505
N        1.1139280074    1.0528265363    1.9019466161
6    
Image 9/11, Energy =  -169.0194690186 (+21.745 kcal/mol)
C       -0.2611690463   -1.0917558951   -0.9106970027
C       -0.5097593619    0.1173471755   -0.3711077379
H       -1.3029888377    0.8034488568   -0.6395666060
H        0.6492418647   -1.6691117479   -0.6734269301
C        0.3675837824    0.8430672162    0.8336084797
N        1.0570915970    0.9970043972    1.7611897951
6    
Image 10/11, Energy =  -169.0450280987 (+5.707 kcal/mol)
C       -0.2621558455   -1.0375648643   -0.9849831972
C       -0.4394724183    0.1448813965   -0.3146451553
H       -1.2369288594    0.8199852189   -0.5927880212
H        0.6030705059   -1.5856678970   -0.5514840624
C        0.3482331706    0.6332965578    0.7796522209
N        0.9872534521    1.0250695880    1.6642482151
