6    
Image 0/11, Energy =  -169.0541225047 (+0.000 kcal/mol)
C       -0.3739982322   -1.4835649216   -1.4070813148
C       -0.1593894459   -0.6267232032   -0.5957043909
H        0.0347237831    0.1461262595    0.1365771350
H       -0.5620257063   -2.2351984846   -2.1185517297
C        0.4238299823    1.6832115239    1.5959380308
N        0.6368596191    2.5161488260    2.3888222696
6    
Image 1/11, Energy =  -169.0534888727 (+0.398 kcal/mol)
C       -0.3513004973   -1.4826293720   -1.3853734325
C       -0.2577596744   -0.5507225391   -0.6363988804
H       -0.1313314970    0.2652019188    0.0617190644
H       -0.4193979861   -2.3082017918   -2.0322235856
C        0.3775960969    1.7000093953    1.5641931857
N        0.7821935580    2.3763423846    2.4280836443
6    
Image 2/11, Energy =  -169.0504450179 (+2.308 kcal/mol)
C       -0.3030241086   -1.4603004006   -1.3203570145
C       -0.3933252206   -0.4464618117   -0.6866959923
H       -0.3861208743    0.4296107213   -0.0589675529
H       -0.1932200540   -2.3580364834   -1.8560052361
C        0.2971559804    1.7524258512    1.5149269294
N        0.9785342787    2.0827621237    2.4070988654
6    
Image 3/11, Energy =  -169.0461794336 (+4.984 kcal/mol)
C       -0.2558683704   -1.4112957284   -1.2338765530
C       -0.5016224957   -0.3588978275   -0.7175102600
H       -0.6096116997    0.5587354199   -0.1753821071
H        0.0030812812   -2.3405747096   -1.6507658635
C        0.2645829112    1.7796767602    1.4782544282
N        1.0994383723    1.7723560874    2.2992803516
6    
Image 4/11, Energy =  -169.0409226962 (+8.283 kcal/mol)
C       -0.2111745537   -1.3478646270   -1.1359811822
C       -0.6152166962   -0.2865865118   -0.7592999801
H       -0.8526325671    0.6535976748   -0.3234176902
H        0.1939777077   -2.2749428618   -1.4195231550
C        0.3018783128    1.7674301577    1.4589188596
N        1.1831677912    1.4883661696    2.1793031424
6    
Image 5/11, Energy =  -169.0357434431 (+11.533 kcal/mol)
C       -0.1785343135   -1.2680675096   -1.0413184334
C       -0.7118202974   -0.2271374357   -0.7964699168
H       -1.0737135491    0.7124165786   -0.4735371352
H        0.3493390345   -2.1638220907   -1.1914349771
C        0.3584449577    1.6859854680    1.4398114932
N        1.2562841601    1.2606249917    2.0629489633
6    
Image 6/11, Energy =  -169.0299315277 (+15.180 kcal/mol)
C       -0.1560271646   -1.1677987119   -0.9605517311
C       -0.7956184166   -0.1677704875   -0.8323880446
H       -1.2668522303    0.7487252461   -0.6126552577
H        0.4874657935   -1.9978225353   -0.9671489711
C        0.3946402327    1.4505507544    1.3747313425
N        1.3363917770    1.1341157379    1.9980126556
6    
Image 7/11, Energy =  -169.0164101517 (+23.665 kcal/mol)
C       -0.1708238730   -1.1156015245   -0.9471812193
C       -0.7643881175   -0.0936009894   -0.7527221299
H       -1.3176845176    0.7863038389   -0.6239000842
H        0.5606719778   -1.8562489074   -0.8184037127
C        0.3988327219    1.1480336430    1.1943757217
N        1.2933917998    1.1311139434    1.9478314182
6    
Image 8/11, Energy =  -168.9961438601 (+36.382 kcal/mol)
C       -0.2389259351   -1.1087210148   -1.0010858940
C       -0.6147415472    0.0047316794   -0.5460662978
H       -1.3199038483    0.7860012914   -0.6260349694
H        0.5752025130   -1.7434722603   -0.7230206392
C        0.4192390900    0.9079372794    1.0230311505
N        1.1791297190    1.1535230288    1.8731766437
6    
Image 9/11, Energy =  -169.0388552544 (+9.580 kcal/mol)
C       -0.2675021572   -1.0531209201   -0.9868754655
C       -0.4488250435    0.1249192482   -0.3120940085
H       -1.2717591427    0.7765436317   -0.5901308199
H        0.5904620726   -1.6696124304   -0.6550364272
C        0.3640895432    0.7167183507    0.8353637999
N        1.0335347180    1.1045521240    1.7087729155
6    
Image 10/11, Energy =  -169.0450280986 (+5.707 kcal/mol)
C       -0.2621558614   -1.0375647584   -0.9849832660
C       -0.4394898494    0.1448684264   -0.3146268140
H       -1.2369817348    0.8199458111   -0.5927322353
H        0.6031072043   -1.5856404380   -0.5515228140
C        0.3482400870    0.6333016327    0.7796449659
N        0.9872801491    1.0250893263    1.6642201634
