6    
Image 0/11, Energy =  -169.0541225045 (+0.000 kcal/mol)
C       -0.3739982957   -1.4835651492   -1.4070811772
C       -0.1593894248   -0.6267231027   -0.5957044967
H        0.0347238413    0.1461265082    0.1365768439
H       -0.5620258492   -2.2351989079   -2.1185513963
C        0.4238300935    1.6832117409    1.5959379090
N        0.6368596297    2.5161489107    2.3888223120
6    
Image 1/11, Energy =  -169.0532712534 (+0.534 kcal/mol)
C       -0.3443522229   -1.4757699826   -1.3708572484
C       -0.2610969661   -0.5392282195   -0.6276772048
H       -0.1426028605    0.2824418471    0.0654236970
H       -0.4025019003   -2.3029802430   -2.0142985641
C        0.3602991184    1.6960082632    1.5359786323
N        0.7902548279    2.3395283349    2.4114306852
6    
Image 2/11, Energy =  -169.0510137471 (+1.951 kcal/mol)
C       -0.3102792390   -1.4546667729   -1.3208345096
C       -0.3642883482   -0.4551555394   -0.6624989373
H       -0.3260336343    0.4093649649   -0.0176210841
H       -0.2349343612   -2.3393193137   -1.8793405479
C        0.3077857524    1.7129324375    1.4900112753
N        0.9277498282    2.1268442231    2.3902838025
6    
Image 3/11, Energy =  -169.0476084029 (+4.088 kcal/mol)
C       -0.2728791764   -1.4175838103   -1.2571738938
C       -0.4679880791   -0.3757730596   -0.7001490789
H       -0.5195069667    0.5235598079   -0.1150307999
H       -0.0615167235   -2.3371642553   -1.7142116731
C        0.2820482318    1.7114089787    1.4574802227
N        1.0398427127    1.8955523374    2.3290852230
6    
Image 4/11, Energy =  -169.0430775345 (+6.931 kcal/mol)
C       -0.2340360495   -1.3634978316   -1.1816259123
C       -0.5713984179   -0.3037255724   -0.7409768693
H       -0.7258751520    0.6209214830   -0.2312797020
H        0.1139856832   -2.2918381963   -1.5212101350
C        0.2900238734    1.6670956484    1.4285885981
N        1.1273000623    1.6710444669    2.2465040212
6    
Image 5/11, Energy =  -169.0374686365 (+10.450 kcal/mol)
C       -0.1985336559   -1.2926299261   -1.0991865715
C       -0.6656000323   -0.2405566284   -0.7778660460
H       -0.9346179204    0.6960415011   -0.3617477238
H        0.2800174036   -2.2006073103   -1.3086135451
C        0.3244263565    1.5640474853    1.3842663209
N        1.1943078484    1.4737048759    2.1631475670
6    
Image 6/11, Energy =  -169.0297459270 (+15.297 kcal/mol)
C       -0.1753412317   -1.2078362419   -1.0195872202
C       -0.7314553392   -0.1763486159   -0.7895877825
H       -1.1272611395    0.7512908667   -0.4897193401
H        0.4274556361   -2.0613833142   -1.0810545485
C        0.3675175112    1.3829725337    1.3005729426
N        1.2390845632    1.3113047684    2.0793759505
6    
Image 7/11, Energy =  -169.0137870953 (+25.311 kcal/mol)
C       -0.1893095545   -1.1416638854   -0.9874346233
C       -0.7152583555   -0.0958838847   -0.7171939323
H       -1.2609553039    0.7841876826   -0.5822090040
H        0.5301350771   -1.8949817053   -0.8735436357
C        0.4067911146    1.1315329951    1.1672384242
N        1.2285970224    1.2168087939    1.9931427732
6    
Image 8/11, Energy =  -168.9962250435 (+36.331 kcal/mol)
C       -0.2373509183   -1.1129752098   -1.0120880974
C       -0.6045937422   -0.0003335550   -0.5492638165
H       -1.3059642477    0.7848942954   -0.6205833932
H        0.5703948978   -1.7587859218   -0.7417255180
C        0.4252239062    0.9011703975    1.0287565851
N        1.1522901042    1.1860299896    1.8949042422
6    
Image 9/11, Energy =  -169.0168573606 (+23.384 kcal/mol)
C       -0.2583691091   -1.0823226521   -1.0094966642
C       -0.4948699978    0.0836598148   -0.3931316633
H       -1.2851768572    0.7818459178   -0.6124658374
H        0.5806992418   -1.7114096712   -0.6931955063
C        0.3885029286    0.7840329687    0.9140344182
N        1.0692137937    1.1441936177    1.7942552535
6    
Image 10/11, Energy =  -169.0450280987 (+5.707 kcal/mol)
C       -0.2621558349   -1.0375648325   -0.9849832130
C       -0.4394484890    0.1448992827   -0.3146703706
H       -1.2368562616    0.8200394702   -0.5928644344
H        0.6030199748   -1.5857055903   -0.5514309118
C        0.3482237354    0.6332894616    0.7796621642
N        0.9872168753    1.0250422031    1.6642867551
