6    
Image 0/11, Energy =  -169.0541225047 (+0.000 kcal/mol)
C       -0.3739981687   -1.4835649798   -1.4070811137
C       -0.1593894936   -0.6267231344   -0.5957044914
H        0.0347237090    0.1461263812    0.1365769974
H       -0.5620255952   -2.2351986645   -2.1185513169
C        0.4238299506    1.6832116562    1.5959377344
N        0.6368595980    2.5161487414    2.3888221955
6    
Image 1/11, Energy =  -169.0531307164 (+0.622 kcal/mol)
C       -0.3432497584   -1.4712417695   -1.3670688318
C       -0.2688963956   -0.5315867162   -0.6283442684
H       -0.1508638235    0.2893881270    0.0641102964
H       -0.3916977092   -2.3015010866   -2.0045108920
C        0.3699606928    1.6800962316    1.5310277381
N        0.7847469941    2.3348452139    2.4047859616
6    
Image 2/11, Energy =  -169.0506358717 (+2.188 kcal/mol)
C       -0.3098343596   -1.4476344219   -1.3171285069
C       -0.3790984802   -0.4447047510   -0.6668793430
H       -0.3413843707    0.4180467406   -0.0216026529
H       -0.2172743633   -2.3352804896   -1.8644717445
C        0.3312944473    1.6794629916    1.4824375030
N        0.9162971267    2.1301099308    2.3876447468
6    
Image 3/11, Energy =  -169.0470132079 (+4.461 kcal/mol)
C       -0.2747095299   -1.4106222388   -1.2562806033
C       -0.4858055312   -0.3683103086   -0.7076768993
H       -0.5347068849    0.5286925490   -0.1210444559
H       -0.0452419079   -2.3297373393   -1.7010896274
C        0.3190846375    1.6594332055    1.4443458247
N        1.0213792169    1.9205441329    2.3417457624
6    
Image 4/11, Energy =  -169.0422302137 (+7.463 kcal/mol)
C       -0.2383181924   -1.3571952100   -1.1835010940
C       -0.5848856616   -0.2996448777   -0.7465163189
H       -0.7328841122    0.6233242036   -0.2347295002
H        0.1229010694   -2.2820292544   -1.5130891643
C        0.3287857259    1.6015822001    1.4044959878
N        1.1044011720    1.7139629391    2.2733400900
6    
Image 5/11, Energy =  -169.0363185534 (+11.172 kcal/mol)
C       -0.2067139393   -1.2902346326   -1.1052182185
C       -0.6662576971   -0.2382025947   -0.7749694801
H       -0.9249092180    0.6972845356   -0.3540296774
H        0.2768979134   -2.1939810804   -1.3119589349
C        0.3579195754    1.4958881320    1.3485081459
N        1.1630633669    1.5292456409    2.1976681645
6    
Image 6/11, Energy =  -169.0278768701 (+16.469 kcal/mol)
C       -0.1889137066   -1.2137477582   -1.0338010201
C       -0.7149083860   -0.1738185025   -0.7738672122
H       -1.1031879358    0.7530014246   -0.4709195983
H        0.4139452823   -2.0647355199   -1.0977038797
C        0.3952058925    1.3323337535    1.2626831086
N        1.1978588554    1.3669666036    2.1136086006
6    
Image 7/11, Energy =  -169.0120458043 (+26.404 kcal/mol)
C       -0.2024706288   -1.1524138707   -1.0004384990
C       -0.6937580582   -0.0956211753   -0.7006409782
H       -1.2357921371    0.7842724645   -0.5638691842
H        0.5141387358   -1.9093260441   -0.8993411222
C        0.4311567841    1.1203671177    1.1417973548
N        1.1867253064    1.2527215088    2.0224924273
6    
Image 8/11, Energy =  -168.9962144128 (+36.338 kcal/mol)
C       -0.2428493331   -1.1177146619   -1.0088370354
C       -0.5989899752    0.0006117886   -0.5503326630
H       -1.3001075805    0.7868080910   -0.6172396416
H        0.5690044414   -1.7633688815   -0.7499186207
C        0.4440856191    0.9091544879    1.0117607768
N        1.1288568307    1.1845091767    1.9145671822
6    
Image 9/11, Energy =  -169.0180301512 (+22.648 kcal/mol)
C       -0.2621619611   -1.0847069640   -1.0066651385
C       -0.4908037803    0.0858739830   -0.3955623916
H       -1.2785604436    0.7876070923   -0.6100187924
H        0.5820686725   -1.7057900675   -0.6886779642
C        0.3963070517    0.7821837595    0.8999781222
N        1.0531504641    1.1348321972    1.8009461632
6    
Image 10/11, Energy =  -169.0450280987 (+5.707 kcal/mol)
C       -0.2621558455   -1.0375648643   -0.9849831972
C       -0.4394724183    0.1448813965   -0.3146451553
H       -1.2369288594    0.8199852189   -0.5927880212
H        0.6030705059   -1.5856678970   -0.5514840624
C        0.3482331706    0.6332965578    0.7796522209
N        0.9872534521    1.0250695880    1.6642482151
