6    
Image 0/11, Energy =  -169.0541225047 (+0.000 kcal/mol)
C       -0.3739981687   -1.4835649798   -1.4070811137
C       -0.1593894936   -0.6267231344   -0.5957044914
H        0.0347237090    0.1461263812    0.1365769974
H       -0.5620255952   -2.2351986645   -2.1185513169
C        0.4238299506    1.6832116562    1.5959377344
N        0.6368595980    2.5161487414    2.3888221955
6    
Image 1/11, Energy =  -169.0531859864 (+0.588 kcal/mol)
C       -0.3440178997   -1.4725112536   -1.3686170127
C       -0.2680273869   -0.5347714384   -0.6277754438
H       -0.1470620221    0.2855220344    0.0649439060
H       -0.3953360833   -2.3007501668   -2.0087928381
C        0.3737371854    1.6813934732    1.5330642710
N        0.7807062066    2.3411173517    2.4071771213
6    
Image 2/11, Energy =  -169.0508354614 (+2.063 kcal/mol)
C       -0.3118435994   -1.4514064757   -1.3207212012
C       -0.3761477370   -0.4515630302   -0.6651756931
H       -0.3317193580    0.4100319350   -0.0191318429
H       -0.2263086463   -2.3352179076   -1.8754272847
C        0.3388573498    1.6819615002    1.4857815588
N        0.9071619907    2.1461939791    2.3946744654
6    
Image 3/11, Energy =  -169.0473207520 (+4.268 kcal/mol)
C       -0.2773876889   -1.4158815975   -1.2610186311
C       -0.4813497246   -0.3757584998   -0.7057239760
H       -0.5226878467    0.5200586395   -0.1167812657
H       -0.0564155420   -2.3323799485   -1.7152672380
C        0.3261683427    1.6637946014    1.4463509358
N        1.0116724595    1.9401668058    2.3524401760
6    
Image 4/11, Energy =  -169.0425914312 (+7.236 kcal/mol)
C       -0.2416191214   -1.3633851463   -1.1887883738
C       -0.5802509337   -0.3060676496   -0.7451122849
H       -0.7210653550    0.6155320079   -0.2284825921
H        0.1115865613   -2.2875650693   -1.5284087602
C        0.3370945353    1.6084345349    1.4039373539
N        1.0942543140    1.7330513233    2.2868546572
6    
Image 5/11, Energy =  -169.0365429152 (+11.031 kcal/mol)
C       -0.2082657988   -1.2938857850   -1.1079679912
C       -0.6641103106   -0.2414096551   -0.7741158623
H       -0.9182933742    0.6936302790   -0.3492292691
H        0.2700103525   -2.1988584027   -1.3212214723
C        0.3647774862    1.5018804110    1.3454097223
N        1.1558816461    1.5386431538    2.2071248720
6    
Image 6/11, Energy =  -169.0280251129 (+16.376 kcal/mol)
C       -0.1883655956   -1.2155121287   -1.0338263944
C       -0.7142891506   -0.1760141875   -0.7725772664
H       -1.0979233822    0.7521090197   -0.4670616431
H        0.4090231555   -2.0697317032   -1.1056307066
C        0.3997805597    1.3349790337    1.2593079834
N        1.1917744150    1.3741699669    2.1197880259
6    
Image 7/11, Energy =  -169.0121540766 (+26.336 kcal/mol)
C       -0.2018061124   -1.1528095489   -1.0000862811
C       -0.6937464605   -0.0965903370   -0.7002775178
H       -1.2336409435    0.7844859584   -0.5627555591
H        0.5121450488   -1.9125475781   -0.9037515615
C        0.4318675626    1.1199278858    1.1424837938
N        1.1851809072    1.2575336206    2.0243871241
6    
Image 8/11, Energy =  -168.9962144128 (+36.338 kcal/mol)
C       -0.2428493331   -1.1177146619   -1.0088370354
C       -0.5989899752    0.0006117886   -0.5503326630
H       -1.3001075805    0.7868080910   -0.6172396416
H        0.5690044414   -1.7633688815   -0.7499186207
C        0.4440856191    0.9091544879    1.0117607768
N        1.1288568307    1.1845091767    1.9145671822
6    
Image 9/11, Energy =  -169.0180301512 (+22.648 kcal/mol)
C       -0.2621619611   -1.0847069640   -1.0066651385
C       -0.4908037803    0.0858739830   -0.3955623916
H       -1.2785604436    0.7876070923   -0.6100187924
H        0.5820686725   -1.7057900675   -0.6886779642
C        0.3963070517    0.7821837595    0.8999781222
N        1.0531504641    1.1348321972    1.8009461632
6    
Image 10/11, Energy =  -169.0450280987 (+5.707 kcal/mol)
C       -0.2621558455   -1.0375648643   -0.9849831972
C       -0.4394724183    0.1448813965   -0.3146451553
H       -1.2369288594    0.8199852189   -0.5927880212
H        0.6030705059   -1.5856678970   -0.5514840624
C        0.3482331706    0.6332965578    0.7796522209
N        0.9872534521    1.0250695880    1.6642482151
