6    
Image 0/11, Energy =  -169.0541225045 (+0.000 kcal/mol)
C       -0.3739982957   -1.4835651492   -1.4070811772
C       -0.1593894248   -0.6267231027   -0.5957044967
H        0.0347238413    0.1461265082    0.1365768439
H       -0.5620258492   -2.2351989079   -2.1185513963
C        0.4238300935    1.6832117409    1.5959379090
N        0.6368596297    2.5161489107    2.3888223120
6    
Image 1/11, Energy =  -169.0533152398 (+0.507 kcal/mol)
C       -0.3454927645   -1.4767539885   -1.3727993876
C       -0.2606080289   -0.5411088501   -0.6286612757
H       -0.1407640433    0.2791394271    0.0657548976
H       -0.4048994308   -2.3029759991   -2.0175593288
C        0.3652176915    1.6951227571    1.5396771291
N        0.7865465726    2.3465766538    2.4135879627
6    
Image 2/11, Energy =  -169.0511411161 (+1.871 kcal/mol)
C       -0.3123140357   -1.4568710111   -1.3239997533
C       -0.3611703877   -0.4589959151   -0.6623895795
H       -0.3207511627    0.4043676282   -0.0154964439
H       -0.2408468531   -2.3397481212   -1.8864194632
C        0.3129791855    1.7135818898    1.4925722754
N        0.9221032519    2.1376655294    2.3957329635
6    
Image 3/11, Energy =  -169.0478171260 (+3.957 kcal/mol)
C       -0.2753676535   -1.4209882211   -1.2607774625
C       -0.4632761564   -0.3803746655   -0.6987861552
H       -0.5106804954    0.5179279429   -0.1108786899
H       -0.0699815031   -2.3390117630   -1.7241405447
C        0.2868706215    1.7139977940    1.4573706177
N        1.0324351859    1.9084489118    2.3372122349
6    
Image 4/11, Energy =  -169.0432712623 (+6.809 kcal/mol)
C       -0.2360422215   -1.3664078247   -1.1846111879
C       -0.5674214737   -0.3069016156   -0.7385660470
H       -0.7166413496    0.6177801533   -0.2265277554
H        0.1066569856   -2.2948043551   -1.5295523614
C        0.2929201194    1.6697074326    1.4258873926
N        1.1205279394    1.6806262078    2.2533699600
6    
Image 5/11, Energy =  -169.0376358343 (+10.346 kcal/mol)
C       -0.2001784886   -1.2957219128   -1.1015144784
C       -0.6625747518   -0.2428886359   -0.7756617039
H       -0.9274969576    0.6941938548   -0.3574056468
H        0.2743143772   -2.2046341534   -1.3161050732
C        0.3278290145    1.5683765385    1.3804537453
N        1.1881068064    1.4806743064    2.1702331586
6    
Image 6/11, Energy =  -169.0299834353 (+15.147 kcal/mol)
C       -0.1758721434   -1.2104984716   -1.0201928119
C       -0.7310743017   -0.1787804379   -0.7890646213
H       -1.1235614101    0.7497688687   -0.4874240723
H        0.4242795207   -2.0653838450   -1.0868832630
C        0.3714848251    1.3916822324    1.2980142718
N        1.2347435096    1.3132116504    2.0855504987
6    
Image 7/11, Energy =  -169.0138640042 (+25.263 kcal/mol)
C       -0.1893526889   -1.1419404913   -0.9874670083
C       -0.7154388433   -0.0962501835   -0.7174071901
H       -1.2607476093    0.7838326288   -0.5820404310
H        0.5300116152   -1.8951261031   -0.8736899914
C        0.4070196139    1.1337954105    1.1668162454
N        1.2285079124    1.2156887348    1.9937883775
6    
Image 8/11, Energy =  -168.9962250435 (+36.331 kcal/mol)
C       -0.2373509183   -1.1129752098   -1.0120880974
C       -0.6045937422   -0.0003335550   -0.5492638165
H       -1.3059642477    0.7848942954   -0.6205833932
H        0.5703948978   -1.7587859218   -0.7417255180
C        0.4252239062    0.9011703975    1.0287565851
N        1.1522901042    1.1860299896    1.8949042422
6    
Image 9/11, Energy =  -169.0168573606 (+23.384 kcal/mol)
C       -0.2583691091   -1.0823226521   -1.0094966642
C       -0.4948699978    0.0836598148   -0.3931316633
H       -1.2851768572    0.7818459178   -0.6124658374
H        0.5806992418   -1.7114096712   -0.6931955063
C        0.3885029286    0.7840329687    0.9140344182
N        1.0692137937    1.1441936177    1.7942552535
6    
Image 10/11, Energy =  -169.0450280987 (+5.707 kcal/mol)
C       -0.2621558349   -1.0375648325   -0.9849832130
C       -0.4394484890    0.1448992827   -0.3146703706
H       -1.2368562616    0.8200394702   -0.5928644344
H        0.6030199748   -1.5857055903   -0.5514309118
C        0.3482237354    0.6332894616    0.7796621642
N        0.9872168753    1.0250422031    1.6642867551
