6    
Image 0/11, Energy =  -169.0541225045 (+0.000 kcal/mol)
C       -0.3739981793   -1.4835649428   -1.4070811878
C       -0.1593894830   -0.6267231609   -0.5957044385
H        0.0347237196    0.1461263335    0.1365770662
H       -0.5620256323   -2.2351985692   -2.1185514810
C        0.4238299770    1.6832115821    1.5959378403
N        0.6368596033    2.5161487572    2.3888222008
6    
Image 1/11, Energy =  -169.0535365376 (+0.368 kcal/mol)
C       -0.3516803236   -1.4839632576   -1.3869940077
C       -0.2539689065   -0.5547809182   -0.6352362752
H       -0.1257519768    0.2601070521    0.0638629206
H       -0.4242973616   -2.3068989105   -2.0369141367
C        0.3776982860    1.7024803429    1.5662381370
N        0.7780002797    2.3830556899    2.4290433642
6    
Image 2/11, Energy =  -169.0520869474 (+1.277 kcal/mol)
C       -0.3270086409   -1.4751927329   -1.3567005855
C       -0.3381174098   -0.4931415846   -0.6687498097
H       -0.2743821845    0.3578288676   -0.0067572656
H       -0.2928255315   -2.3473486139   -1.9428309000
C        0.3377480089    1.7246457209    1.5404506770
N        0.8945857553    2.2332083418    2.4345878876
6    
Image 3/11, Energy =  -169.0497198278 (+2.763 kcal/mol)
C       -0.2942214548   -1.4514686642   -1.3051246069
C       -0.4158090258   -0.4288029429   -0.6919887601
H       -0.4279905939    0.4568950904   -0.0797195476
H       -0.1552204964   -2.3580761053   -1.8183490335
C        0.2888808751    1.7568592549    1.5043911237
N        1.0043606940    2.0245933677    2.3907908263
6    
Image 4/11, Energy =  -169.0459228419 (+5.145 kcal/mol)
C       -0.2543695604   -1.4093389983   -1.2307531780
C       -0.5136549958   -0.3553385210   -0.7244664083
H       -0.6263147464    0.5629651492   -0.1859041814
H        0.0158212264   -2.3385247183   -1.6398503128
C        0.2758527300    1.7713834027    1.4759443643
N        1.1026653443    1.7688536853    2.3050297170
6    
Image 5/11, Energy =  -169.0409092399 (+8.291 kcal/mol)
C       -0.2120107733   -1.3463376009   -1.1377265189
C       -0.6190249330   -0.2861965295   -0.7616659378
H       -0.8543516993    0.6531695818   -0.3234637650
H        0.1964215867   -2.2719871374   -1.4196377408
C        0.3077445085    1.7504169503    1.4511739888
N        1.1812213076    1.5009347339    2.1913199739
6    
Image 6/11, Energy =  -169.0352406723 (+11.849 kcal/mol)
C       -0.1753508318   -1.2574865152   -1.0355359663
C       -0.7197770476   -0.2204665841   -0.7994699369
H       -1.0880879313    0.7169543927   -0.4789579319
H        0.3661600069   -2.1466359487   -1.1732686812
C        0.3571337547    1.6456185404    1.4226759866
N        1.2599220419    1.2620161083    2.0645565286
6    
Image 7/11, Energy =  -169.0287311422 (+15.933 kcal/mol)
C       -0.1541148529   -1.1597991278   -0.9569283742
C       -0.7925376720   -0.1598951543   -0.8221035533
H       -1.2658876830    0.7545424313   -0.6015895597
H        0.5007975593   -1.9801164144   -0.9504909499
C        0.3913743457    1.4038758540    1.3330234604
N        1.3203682934    1.1413924021    1.9980889752
6    
Image 8/11, Energy =  -169.0140294937 (+25.159 kcal/mol)
C       -0.1782101050   -1.1179349921   -0.9556633416
C       -0.7508277572   -0.0868499294   -0.7348076498
H       -1.3167496638    0.7860785236   -0.6195194137
H        0.5626246993   -1.8470691850   -0.8119864986
C        0.4045482822    1.1220451928    1.1731730601
N        1.2786145343    1.1437303804    1.9488038416
6    
Image 9/11, Energy =  -168.9961780623 (+36.361 kcal/mol)
C       -0.2399041188   -1.1106466557   -1.0053928258
C       -0.6117179355    0.0022847523   -0.5446078500
H       -1.3176200063    0.7832783846   -0.6211946921
H        0.5739294103   -1.7474732422   -0.7306749829
C        0.4223342185    0.9049751546    1.0244353136
N        1.1729784216    1.1675815966    1.8774350353
6    
Image 10/11, Energy =  -169.0450280986 (+5.707 kcal/mol)
C       -0.2621558402   -1.0375648166   -0.9849832183
C       -0.4394815308    0.1448746231   -0.3146355878
H       -1.2369564931    0.8199646233   -0.5927588847
H        0.6030896833   -1.5856535457   -0.5515042875
C        0.3482367849    0.6332992196    0.7796484267
N        0.9872674012    1.0250798964    1.6642335463
