6    
Image 0/11, Energy =  -169.0541225047 (+0.000 kcal/mol)
C       -0.3739981687   -1.4835649798   -1.4070811137
C       -0.1593894936   -0.6267231344   -0.5957044914
H        0.0347237090    0.1461263812    0.1365769974
H       -0.5620255952   -2.2351986645   -2.1185513169
C        0.4238299506    1.6832116562    1.5959377344
N        0.6368595980    2.5161487414    2.3888221955
6    
Image 1/11, Energy =  -169.0532107095 (+0.572 kcal/mol)
C       -0.3448853088   -1.4730579113   -1.3697122601
C       -0.2678395633   -0.5362140443   -0.6278155844
H       -0.1456469586    0.2834478306    0.0651309965
H       -0.3967260501   -2.3004749555   -2.0108676581
C        0.3768030762    1.6811445236    1.5349281744
N        0.7782948045    2.3451545575    2.4083363354
6    
Image 2/11, Energy =  -169.0509101770 (+2.016 kcal/mol)
C       -0.3135670182   -1.4526631575   -1.3224628777
C       -0.3753475700   -0.4542303407   -0.6661069042
H       -0.3286697403    0.4062023476   -0.0180800109
H       -0.2293540897   -2.3355339330   -1.8799000586
C        0.3438857112    1.6812385127    1.4882109988
N        0.9030527068    2.1549865718    2.3983388548
6    
Image 3/11, Energy =  -169.0474606660 (+4.180 kcal/mol)
C       -0.2796899324   -1.4189737515   -1.2635727848
C       -0.4792170988   -0.3789885220   -0.7062649825
H       -0.5177084128    0.5148175188   -0.1146727202
H       -0.0614346589   -2.3335672827   -1.7224975172
C        0.3314750217    1.6641545326    1.4480003069
N        1.0065750811    1.9525575058    2.3590076988
6    
Image 4/11, Energy =  -169.0427878487 (+7.113 kcal/mol)
C       -0.2440691912   -1.3673021833   -1.1923381702
C       -0.5776799372   -0.3096879998   -0.7449292982
H       -0.7144019317    0.6101218976   -0.2249413750
H        0.1053389794   -2.2903937659   -1.5373597529
C        0.3424544005    1.6109104054    1.4042653586
N        1.0883576805    1.7463516471    2.2953032377
6    
Image 5/11, Energy =  -169.0367472701 (+10.903 kcal/mol)
C       -0.2105051433   -1.2973376232   -1.1119852431
C       -0.6625303098   -0.2447015867   -0.7735398287
H       -0.9124861648    0.6899225983   -0.3455713243
H        0.2648647859   -2.2027376781   -1.3286408965
C        0.3701159566    1.5069480312    1.3443838544
N        1.1505408764    1.5479062596    2.2153534374
6    
Image 6/11, Energy =  -169.0281548232 (+16.295 kcal/mol)
C       -0.1898088673   -1.2179092656   -1.0361133630
C       -0.7135544834   -0.1779484796   -0.7716698658
H       -1.0943970331    0.7506518145   -0.4644051932
H        0.4061447054   -2.0727849831   -1.1101486837
C        0.4042934868    1.3394764843    1.2566091910
N        1.1873221933    1.3785144303    2.1257279135
6    
Image 7/11, Energy =  -169.0122000287 (+26.307 kcal/mol)
C       -0.2021231654   -1.1536142991   -1.0001726935
C       -0.6935904316   -0.0975985002   -0.6992958855
H       -1.2318456022    0.7845173796   -0.5614865348
H        0.5110360606   -1.9145471019   -0.9066910266
C        0.4339527300    1.1215117587    1.1407171298
N        1.1825704108    1.2597307637    2.0269290090
6    
Image 8/11, Energy =  -168.9962144128 (+36.338 kcal/mol)
C       -0.2428493331   -1.1177146619   -1.0088370354
C       -0.5989899752    0.0006117886   -0.5503326630
H       -1.3001075805    0.7868080910   -0.6172396416
H        0.5690044414   -1.7633688815   -0.7499186207
C        0.4440856191    0.9091544879    1.0117607768
N        1.1288568307    1.1845091767    1.9145671822
6    
Image 9/11, Energy =  -169.0180301512 (+22.648 kcal/mol)
C       -0.2621619611   -1.0847069640   -1.0066651385
C       -0.4908037803    0.0858739830   -0.3955623916
H       -1.2785604436    0.7876070923   -0.6100187924
H        0.5820686725   -1.7057900675   -0.6886779642
C        0.3963070517    0.7821837595    0.8999781222
N        1.0531504641    1.1348321972    1.8009461632
6    
Image 10/11, Energy =  -169.0450280987 (+5.707 kcal/mol)
C       -0.2621558455   -1.0375648643   -0.9849831972
C       -0.4394724183    0.1448813965   -0.3146451553
H       -1.2369288594    0.8199852189   -0.5927880212
H        0.6030705059   -1.5856678970   -0.5514840624
C        0.3482331706    0.6332965578    0.7796522209
N        0.9872534521    1.0250695880    1.6642482151
