6    
Image 0/11, Energy =  -169.0541225047 (+0.000 kcal/mol)
C       -0.3739981687   -1.4835649798   -1.4070811137
C       -0.1593894936   -0.6267231344   -0.5957044914
H        0.0347237090    0.1461263812    0.1365769974
H       -0.5620255952   -2.2351986645   -2.1185513169
C        0.4238299506    1.6832116562    1.5959377344
N        0.6368595980    2.5161487414    2.3888221955
6    
Image 1/11, Energy =  -169.0532255308 (+0.563 kcal/mol)
C       -0.3541401654   -1.4710784307   -1.3760274540
C       -0.2660663156   -0.5356865890   -0.6340252903
H       -0.1320818652    0.2731370853    0.0711561991
H       -0.4056896002   -2.2984645641   -2.0171722424
C        0.4097639862    1.6499966996    1.5549436971
N        0.7482139593    2.3820957991    2.4011250934
6    
Image 2/11, Energy =  -169.0508553767 (+2.050 kcal/mol)
C       -0.3287594526   -1.4517261913   -1.3390992406
C       -0.3746296772   -0.4557990902   -0.6771055786
H       -0.3073605075    0.3891605896   -0.0105001702
H       -0.2458821240   -2.3359933581   -1.8928850066
C        0.4000935260    1.6210546969    1.5176267539
N        0.8565382344    2.2333033540    2.4019632433
6    
Image 3/11, Energy =  -169.0472798902 (+4.294 kcal/mol)
C       -0.2971700673   -1.4209188720   -1.2887586573
C       -0.4807533540   -0.3869319722   -0.7164941682
H       -0.4921820180    0.4954799685   -0.1054786948
H       -0.0834096116   -2.3378518980   -1.7445010917
C        0.3981656894    1.5894868814    1.4714090942
N        0.9553493603    2.0607358936    2.3838235178
6    
Image 4/11, Energy =  -169.0427874017 (+7.113 kcal/mol)
C       -0.2627039460   -1.3773940123   -1.2208991826
C       -0.5768697789   -0.3243446068   -0.7507641207
H       -0.6840819375    0.5889063780   -0.2092459595
H        0.0792733238   -2.3009044094   -1.5727073693
C        0.4026152232    1.5531555234    1.4116492389
N        1.0417671147    1.8605811288    2.3419673924
6    
Image 5/11, Energy =  -169.0372834432 (+10.567 kcal/mol)
C       -0.2275418672   -1.3169955256   -1.1395213224
C       -0.6569482346   -0.2634880375   -0.7729849827
H       -0.8801228078    0.6690240710   -0.3222577087
H        0.2384948177   -2.2232798329   -1.3743801130
C        0.4165563938    1.4941810333    1.3389020716
N        1.1095616973    1.6405582936    2.2702420538
6    
Image 6/11, Energy =  -169.0297958504 (+15.265 kcal/mol)
C       -0.1994738752   -1.2400161702   -1.0558963203
C       -0.7063845372   -0.1985671445   -0.7698876188
H       -1.0643676695    0.7327226089   -0.4332618817
H        0.3821302483   -2.1046370897   -1.1589565320
C        0.4375520709    1.3816759502    1.2457372601
N        1.1505437622    1.4288218471    2.1722650909
6    
Image 7/11, Energy =  -169.0152661393 (+24.383 kcal/mol)
C       -0.1985100926   -1.1672092765   -0.9966575110
C       -0.6962878680   -0.1117575314   -0.7085317713
H       -1.2172835667    0.7745358067   -0.5345846789
H        0.4984871552   -1.9457054472   -0.9439783582
C        0.4560366179    1.1869122827    1.1257840446
N        1.1575577553    1.2632241670    2.0579682731
6    
Image 8/11, Energy =  -168.9960144126 (+36.463 kcal/mol)
C       -0.2388537744   -1.1147340733   -0.9873855780
C       -0.6009545886    0.0107151852   -0.5523915545
H       -1.3185882133    0.7850741308   -0.6191665150
H        0.5810677735   -1.7570586968   -0.7405653466
C        0.4558906859    0.9298739377    0.9835738401
N        1.1214381191    1.1461295172    1.9159351522
6    
Image 9/11, Energy =  -169.0140719572 (+25.132 kcal/mol)
C       -0.2611924472   -1.0895892851   -0.9963464285
C       -0.4984573051    0.0861751219   -0.4126191838
H       -1.2930173840    0.7849662115   -0.6106339912
H        0.5873263621   -1.7135250552   -0.6943412218
C        0.4091784645    0.8106110910    0.8950802970
N        1.0561623125    1.1213619167    1.8188605268
6    
Image 10/11, Energy =  -169.0450280987 (+5.707 kcal/mol)
C       -0.2621558455   -1.0375648643   -0.9849831972
C       -0.4394724183    0.1448813965   -0.3146451553
H       -1.2369288594    0.8199852189   -0.5927880212
H        0.6030705059   -1.5856678970   -0.5514840624
C        0.3482331706    0.6332965578    0.7796522209
N        0.9872534521    1.0250695880    1.6642482151
