6    
Image 0/11, Energy =  -169.0541225047 (+0.000 kcal/mol)
C       -0.3739981687   -1.4835649798   -1.4070811137
C       -0.1593894936   -0.6267231344   -0.5957044914
H        0.0347237090    0.1461263812    0.1365769974
H       -0.5620255952   -2.2351986645   -2.1185513169
C        0.4238299506    1.6832116562    1.5959377344
N        0.6368595980    2.5161487414    2.3888221955
6    
Image 1/11, Energy =  -169.0531769161 (+0.593 kcal/mol)
C       -0.3533296560   -1.4686319985   -1.3780576050
C       -0.2663903662   -0.5342918014   -0.6336440558
H       -0.1276261981    0.2718168783    0.0713151761
H       -0.4096738743   -2.2976246955   -2.0160465896
C        0.4170256808    1.6384558761    1.5602856450
N        0.7399944132    2.3902757411    2.3961474320
6    
Image 2/11, Energy =  -169.0506727484 (+2.165 kcal/mol)
C       -0.3268737401   -1.4482301278   -1.3407840817
C       -0.3759343284   -0.4536038522   -0.6763979566
H       -0.3009984920    0.3887961987   -0.0093609227
H       -0.2517562178   -2.3346418124   -1.8922667092
C        0.4118459467    1.6003756858    1.5233038583
N        0.8437168309    2.2473039085    2.3955058128
6    
Image 3/11, Energy =  -169.0469463829 (+4.503 kcal/mol)
C       -0.2963077411   -1.4174144648   -1.2905015958
C       -0.4814498229   -0.3847223055   -0.7164709365
H       -0.4868635708    0.4951518623   -0.1043869159
H       -0.0892910468   -2.3364901229   -1.7446525490
C        0.4126050375    1.5629025330    1.4759292324
N        0.9413071430    2.0805724991    2.3800827644
6    
Image 4/11, Energy =  -169.0424036192 (+7.354 kcal/mol)
C       -0.2636762876   -1.3764476760   -1.2216693416
C       -0.5766289102   -0.3227558861   -0.7511977108
H       -0.6815472370    0.5881373278   -0.2101962473
H        0.0745744758   -2.2995040623   -1.5756761634
C        0.4172402219    1.5257725435    1.4144362440
N        1.0300377361    1.8847977551    2.3443032183
6    
Image 5/11, Energy =  -169.0369978956 (+10.746 kcal/mol)
C       -0.2289946934   -1.3177479458   -1.1390202112
C       -0.6573039657   -0.2640277737   -0.7727085799
H       -0.8794507385    0.6679476747   -0.3234113068
H        0.2355942648   -2.2229538159   -1.3805982683
C        0.4287519202    1.4752239261    1.3382758362
N        1.1014032115    1.6615579365    2.2774625286
6    
Image 6/11, Energy =  -169.0298367116 (+15.240 kcal/mol)
C       -0.1983288122   -1.2407447736   -1.0527171452
C       -0.7094126733   -0.2002926828   -0.7692065850
H       -1.0648766665    0.7307244236   -0.4324766600
H        0.3820404384   -2.1043165969   -1.1639173792
C        0.4445137266    1.3817525100    1.2414408108
N        1.1460639862    1.4328771219    2.1768769570
6    
Image 7/11, Energy =  -169.0160287186 (+23.904 kcal/mol)
C       -0.1946422697   -1.1664871123   -0.9915827576
C       -0.6978610219   -0.1162629826   -0.7092832038
H       -1.2149087424    0.7731801854   -0.5281907926
H        0.4971324361   -1.9524667244   -0.9522513836
C        0.4563413877    1.2036852109    1.1219125394
N        1.1539382109    1.2583514245    2.0593955965
6    
Image 8/11, Energy =  -168.9960266264 (+36.456 kcal/mol)
C       -0.2316237334   -1.1161405393   -0.9820647310
C       -0.6039800723    0.0035738001   -0.5584185782
H       -1.3102549720    0.7861519539   -0.6061181129
H        0.5754757998   -1.7796689646   -0.7622162909
C        0.4522278406    0.9562848127    0.9856200959
N        1.1181551394    1.1497989382    1.9231976152
6    
Image 9/11, Energy =  -169.0125246313 (+26.103 kcal/mol)
C       -0.2573244142   -1.0895997027   -0.9928645585
C       -0.4976812357    0.0807055403   -0.4144868177
H       -1.2840174530    0.7834252044   -0.6024986205
H        0.5803806169   -1.7258499237   -0.7095407609
C        0.4058435440    0.8254851832    0.8962393963
N        1.0527989445    1.1258336995    1.8231513599
6    
Image 10/11, Energy =  -169.0450280987 (+5.707 kcal/mol)
C       -0.2621558455   -1.0375648643   -0.9849831972
C       -0.4394724183    0.1448813965   -0.3146451553
H       -1.2369288594    0.8199852189   -0.5927880212
H        0.6030705059   -1.5856678970   -0.5514840624
C        0.3482331706    0.6332965578    0.7796522209
N        0.9872534521    1.0250695880    1.6642482151
