6    
Image 0/11, Energy =  -169.0541225047 (+0.000 kcal/mol)
C       -0.3739981687   -1.4835649798   -1.4070811137
C       -0.1593894936   -0.6267231344   -0.5957044914
H        0.0347237090    0.1461263812    0.1365769974
H       -0.5620255952   -2.2351986645   -2.1185513169
C        0.4238299506    1.6832116562    1.5959377344
N        0.6368595980    2.5161487414    2.3888221955
6    
Image 1/11, Energy =  -169.0527227293 (+0.878 kcal/mol)
C       -0.3571267568   -1.4683150586   -1.3716214071
C       -0.2536463828   -0.5195908120   -0.6426473798
H       -0.1234001188    0.2742673138    0.0797638493
H       -0.4201569041   -2.2934631230   -2.0157333451
C        0.4390445353    1.5987879110    1.5749552737
N        0.7152856289    2.4083137684    2.3752830110
6    
Image 2/11, Energy =  -169.0494486326 (+2.933 kcal/mol)
C       -0.3362845587   -1.4448854933   -1.3284054595
C       -0.3557247075   -0.4332273628   -0.6859469565
H       -0.2854193630    0.3888254252    0.0080083322
H       -0.2696287818   -2.3234240934   -1.8958214526
C        0.4540131490    1.5260851944    1.5417236057
N        0.7930442623    2.2866263291    2.3604419298
6    
Image 3/11, Energy =  -169.0453903260 (+5.480 kcal/mol)
C       -0.2989366556   -1.4180748848   -1.2735928497
C       -0.4690121111   -0.3676675065   -0.7239894029
H       -0.4693199725    0.4979335741   -0.0957006694
H       -0.1102699077   -2.3257879875   -1.7558808677
C        0.4592923817    1.4744220980    1.4956242759
N        0.8882462639    2.1391747079    2.3535395128
6    
Image 4/11, Energy =  -169.0406211104 (+8.472 kcal/mol)
C       -0.2497823289   -1.3736081221   -1.2040166636
C       -0.5785249249   -0.3114809647   -0.7630030921
H       -0.6774091560    0.5924365565   -0.2098414753
H        0.0528872194   -2.2978063471   -1.5896691180
C        0.4663638408    1.4339170144    1.4279402792
N        0.9864653462    1.9565418649    2.3385900685
6    
Image 5/11, Energy =  -169.0354170345 (+11.738 kcal/mol)
C       -0.2044114088   -1.3126971812   -1.1196581173
C       -0.6676815534   -0.2586530697   -0.7756382208
H       -0.8872942695    0.6740386020   -0.3240000280
H        0.2179879234   -2.2281722306   -1.4031384492
C        0.4690046043    1.4053113462    1.3350932202
N        1.0723947018    1.7201725369    2.2873415945
6    
Image 6/11, Energy =  -169.0291387520 (+15.678 kcal/mol)
C       -0.1768138979   -1.2361745948   -1.0266960368
C       -0.7225696390   -0.2029135687   -0.7588954811
H       -1.0769777433    0.7397561114   -0.4384523761
H        0.3773630940   -2.1133030315   -1.1941538070
C        0.4697967355    1.3520628102    1.2291227308
N        1.1292014504    1.4605722762    2.1890749694
6    
Image 7/11, Energy =  -169.0170708557 (+23.250 kcal/mol)
C       -0.1785635527   -1.1624641557   -0.9605068164
C       -0.7161255012   -0.1231159276   -0.6944569471
H       -1.2253192732    0.7812388996   -0.5335511763
H        0.5111403838   -1.9572405853   -0.9692359924
C        0.4627576814    1.2343080263    1.1041130447
N        1.1461102617    1.2272737449    2.0536378855
6    
Image 8/11, Energy =  -168.9964732214 (+36.175 kcal/mol)
C       -0.2190264936   -1.1169621080   -0.9622742308
C       -0.6143180844   -0.0182155050   -0.5575087511
H       -1.2967851332    0.7857810996   -0.5908793821
H        0.5742315652   -1.8137085129   -0.8009958702
C        0.4409243168    1.0399621555    0.9838100098
N        1.1149738299    1.1231428722    1.9278482224
6    
Image 9/11, Energy =  -169.0157946458 (+24.051 kcal/mol)
C       -0.2550847279   -1.0819024069   -0.9810582891
C       -0.4820505821    0.0902171154   -0.3854024876
H       -1.2809562240    0.7732891842   -0.5935778384
H        0.5820678965   -1.7322146712   -0.7257825420
C        0.3938752299    0.8422081898    0.8754486675
N        1.0421484102    1.1084025890    1.8103724872
6    
Image 10/11, Energy =  -169.0450280987 (+5.707 kcal/mol)
C       -0.2621558455   -1.0375648643   -0.9849831972
C       -0.4394724183    0.1448813965   -0.3146451553
H       -1.2369288594    0.8199852189   -0.5927880212
H        0.6030705059   -1.5856678970   -0.5514840624
C        0.3482331706    0.6332965578    0.7796522209
N        0.9872534521    1.0250695880    1.6642482151
