6    
Image 0/11, Energy =  -169.0541225047 (+0.000 kcal/mol)
C       -0.3739981687   -1.4835649798   -1.4070811137
C       -0.1593894936   -0.6267231344   -0.5957044914
H        0.0347237090    0.1461263812    0.1365769974
H       -0.5620255952   -2.2351986645   -2.1185513169
C        0.4238299506    1.6832116562    1.5959377344
N        0.6368595980    2.5161487414    2.3888221955
6    
Image 1/11, Energy =  -169.0532807536 (+0.528 kcal/mol)
C       -0.3487283264   -1.4729169245   -1.3768877636
C       -0.2693191556   -0.5394367284   -0.6313288452
H       -0.1386560812    0.2751384582    0.0662798382
H       -0.4026955514   -2.3016385545   -2.0166422141
C        0.3958695247    1.6697750444    1.5490291088
N        0.7635295891    2.3690787055    2.4095498794
6    
Image 2/11, Energy =  -169.0510573253 (+1.923 kcal/mol)
C       -0.3210365271   -1.4545311434   -1.3353611812
C       -0.3785720923   -0.4596438512   -0.6714113333
H       -0.3165882190    0.3927046294   -0.0144297436
H       -0.2391531251   -2.3379337180   -1.8919271775
C        0.3754907532    1.6584933100    1.5046601560
N        0.8798592094    2.2009107743    2.4084692813
6    
Image 3/11, Energy =  -169.0476745578 (+4.046 kcal/mol)
C       -0.2902382333   -1.4237049810   -1.2801547221
C       -0.4821112452   -0.3880950367   -0.7131168268
H       -0.5011690909    0.4980685151   -0.1075634219
H       -0.0746281784   -2.3386372000   -1.7411353319
C        0.3670026854    1.6394408643    1.4600196246
N        0.9811440616    2.0129278398    2.3819506785
6    
Image 4/11, Energy =  -169.0432151950 (+6.844 kcal/mol)
C       -0.2554262221   -1.3775499667   -1.2111386692
C       -0.5771798783   -0.3226529545   -0.7495098490
H       -0.6915911127    0.5918160640   -0.2128722424
H        0.0872614764   -2.3004631870   -1.5645005443
C        0.3735169454    1.5981101615    1.4088112800
N        1.0634187907    1.8107398841    2.3292100243
6    
Image 5/11, Energy =  -169.0375867683 (+10.376 kcal/mol)
C       -0.2200503942   -1.3133563512   -1.1303699797
C       -0.6588061976   -0.2602997206   -0.7747426132
H       -0.8823911446    0.6722188947   -0.3256387823
H        0.2421994527   -2.2210759166   -1.3655196494
C        0.3945842358    1.5167426407    1.3426839866
N        1.1244640477    1.6057704545    2.2535870367
6    
Image 6/11, Energy =  -169.0295262426 (+15.434 kcal/mol)
C       -0.1959388160   -1.2332989776   -1.0482536640
C       -0.7131529803   -0.1930665646   -0.7751421726
H       -1.0691802071    0.7378204689   -0.4439479381
H        0.3882573677   -2.0937899235   -1.1432330476
C        0.4259272029    1.3714878089    1.2517410007
N        1.1640874334    1.4108471891    2.1588358200
6    
Image 7/11, Energy =  -169.0132792909 (+25.630 kcal/mol)
C       -0.2054549958   -1.1594033547   -1.0009975420
C       -0.6985928788   -0.1039297357   -0.7059330044
H       -1.2307680027    0.7788744651   -0.5559526870
H        0.5102455170   -1.9166179754   -0.9091515462
C        0.4534738900    1.1500946480    1.1280037331
N        1.1710964718    1.2509819536    2.0440310447
6    
Image 8/11, Energy =  -168.9961794819 (+36.360 kcal/mol)
C       -0.2478378014   -1.1173326332   -1.0066484116
C       -0.5956651694    0.0089252446   -0.5461903277
H       -1.3128816682    0.7808901179   -0.6249567976
H        0.5768212438   -1.7414623935   -0.7282404340
C        0.4526383994    0.9108337207    0.9938933942
N        1.1269249983    1.1581459442    1.9121425749
6    
Image 9/11, Energy =  -169.0180899418 (+22.611 kcal/mol)
C       -0.2634920255   -1.0854222287   -1.0025943614
C       -0.4949139601    0.0893323309   -0.4016910229
H       -1.2893019386    0.7823101587   -0.6180753926
H        0.5888969095   -1.6851698840   -0.6691854308
C        0.4011182313    0.7862723181    0.8903159594
N        1.0576927865    1.1126773056    1.8012302470
6    
Image 10/11, Energy =  -169.0450280987 (+5.707 kcal/mol)
C       -0.2621558455   -1.0375648643   -0.9849831972
C       -0.4394724183    0.1448813965   -0.3146451553
H       -1.2369288594    0.8199852189   -0.5927880212
H        0.6030705059   -1.5856678970   -0.5514840624
C        0.3482331706    0.6332965578    0.7796522209
N        0.9872534521    1.0250695880    1.6642482151
