6    
Image 0/11, Energy =  -169.0541225045 (+0.000 kcal/mol)
C       -0.3739982957   -1.4835651492   -1.4070811772
C       -0.1593894248   -0.6267231027   -0.5957044967
H        0.0347238413    0.1461265082    0.1365768439
H       -0.5620258492   -2.2351989079   -2.1185513963
C        0.4238300935    1.6832117409    1.5959379090
N        0.6368596297    2.5161489107    2.3888223120
6    
Image 1/11, Energy =  -169.0532712534 (+0.534 kcal/mol)
C       -0.3443522229   -1.4757699826   -1.3708572484
C       -0.2610969661   -0.5392282195   -0.6276772048
H       -0.1426028605    0.2824418471    0.0654236970
H       -0.4025019003   -2.3029802430   -2.0142985641
C        0.3602991184    1.6960082632    1.5359786323
N        0.7902548279    2.3395283349    2.4114306852
6    
Image 2/11, Energy =  -169.0510566901 (+1.924 kcal/mol)
C       -0.3111135166   -1.4552910687   -1.3215916186
C       -0.3625689834   -0.4564278777   -0.6620353857
H       -0.3235351090    0.4078131709   -0.0164285047
H       -0.2372720441   -2.3392206336   -1.8817539705
C        0.3089250298    1.7133220268    1.4902117063
N        0.9255646213    2.1298043821    2.3915977722
6    
Image 3/11, Energy =  -169.0476658448 (+4.052 kcal/mol)
C       -0.2737591039   -1.4183488772   -1.2576142503
C       -0.4656003518   -0.3766590849   -0.6992153436
H       -0.5158263510    0.5221720811   -0.1127378713
H       -0.0643704207   -2.3373532788   -1.7168308756
C        0.2824727365    1.7124933966    1.4562551096
N        1.0370834898    1.8976957619    2.3301432314
6    
Image 4/11, Energy =  -169.0431061517 (+6.913 kcal/mol)
C       -0.2345312843   -1.3636603635   -1.1817354409
C       -0.5698205223   -0.3037583712   -0.7397065670
H       -0.7226124896    0.6209399451   -0.2291694472
H        0.1122450586   -2.2920826782   -1.5223196166
C        0.2894353826    1.6671074444    1.4266550212
N        1.1252838545    1.6714540213    2.2462760513
6    
Image 5/11, Energy =  -169.0375099716 (+10.425 kcal/mol)
C       -0.1991486606   -1.2934340957   -1.0999543238
C       -0.6644303110   -0.2410598589   -0.7768935093
H       -0.9319762288    0.6957146141   -0.3600432850
H        0.2782192759   -2.2017221484   -1.3106174906
C        0.3251750384    1.5649490232    1.3826815969
N        1.1921608861    1.4755524633    2.1648270133
6    
Image 6/11, Energy =  -169.0297981708 (+15.264 kcal/mol)
C       -0.1758559105   -1.2085863460   -1.0203372378
C       -0.7308706315   -0.1768725089   -0.7892768537
H       -1.1264545798    0.7508267180   -0.4891095105
H        0.4267254446   -2.0623633356   -1.0822726500
C        0.3681375201    1.3851172273    1.3002593257
N        1.2383181573    1.3118782419    2.0807369284
6    
Image 7/11, Energy =  -169.0138269199 (+25.286 kcal/mol)
C       -0.1893735929   -1.1418498778   -0.9875399968
C       -0.7152905917   -0.0960770561   -0.7172741504
H       -1.2608071691    0.7839641373   -0.5820882661
H        0.5300439027   -1.8950548977   -0.8736047778
C        0.4069412068    1.1328618786    1.1670878162
N        1.2284862443    1.2161558121    1.9934193771
6    
Image 8/11, Energy =  -168.9962250435 (+36.331 kcal/mol)
C       -0.2373509183   -1.1129752098   -1.0120880974
C       -0.6045937422   -0.0003335550   -0.5492638165
H       -1.3059642477    0.7848942954   -0.6205833932
H        0.5703948978   -1.7587859218   -0.7417255180
C        0.4252239062    0.9011703975    1.0287565851
N        1.1522901042    1.1860299896    1.8949042422
6    
Image 9/11, Energy =  -169.0168573606 (+23.384 kcal/mol)
C       -0.2583691091   -1.0823226521   -1.0094966642
C       -0.4948699978    0.0836598148   -0.3931316633
H       -1.2851768572    0.7818459178   -0.6124658374
H        0.5806992418   -1.7114096712   -0.6931955063
C        0.3885029286    0.7840329687    0.9140344182
N        1.0692137937    1.1441936177    1.7942552535
6    
Image 10/11, Energy =  -169.0450280987 (+5.707 kcal/mol)
C       -0.2621558349   -1.0375648325   -0.9849832130
C       -0.4394484890    0.1448992827   -0.3146703706
H       -1.2368562616    0.8200394702   -0.5928644344
H        0.6030199748   -1.5857055903   -0.5514309118
C        0.3482237354    0.6332894616    0.7796621642
N        0.9872168753    1.0250422031    1.6642867551
