6    
Image 0/11, Energy =  -169.0541225044 (+0.000 kcal/mol)
C       -0.3739982322   -1.4835652233   -1.4070810555
C       -0.1593894618   -0.6267230339   -0.5957045761
H        0.0347237301    0.1461266934    0.1365766693
H       -0.5620257434   -2.2351990296   -2.1185511794
C        0.4238300829    1.6832117250    1.5959378561
N        0.6368596244    2.5161488684    2.3888222855
6    
Image 1/11, Energy =  -169.0535253570 (+0.375 kcal/mol)
C       -0.3495453100   -1.4824210165   -1.3832314562
C       -0.2524841011   -0.5550989550   -0.6295707022
H       -0.1246087932    0.2609578629    0.0684319154
H       -0.4233236266   -2.3024556203   -2.0361111609
C        0.3744039016    1.7028208666    1.5563990804
N        0.7755579299    2.3761968616    2.4240823241
6    
Image 2/11, Energy =  -169.0517663518 (+1.479 kcal/mol)
C       -0.3209289497   -1.4694555125   -1.3427994544
C       -0.3444658764   -0.4813201995   -0.6644509929
H       -0.2915499956    0.3752753090   -0.0090379708
H       -0.2738723099   -2.3441488520   -1.9229894201
C        0.3216310667    1.7290354483    1.5198035877
N        0.9091860658    2.1906138057    2.4194742514
6    
Image 3/11, Energy =  -169.0488975171 (+3.279 kcal/mol)
C       -0.2847207432   -1.4391814126   -1.2836769214
C       -0.4367968484   -0.4071485264   -0.6942201907
H       -0.4678002085    0.4860362988   -0.0954356068
H       -0.1156694189   -2.3518274812   -1.7751460308
C        0.2821757501    1.7512225247    1.4836594242
N        1.0228114701    1.9608985955    2.3648193263
6    
Image 4/11, Energy =  -169.0448880756 (+5.795 kcal/mol)
C       -0.2446360964   -1.3902250967   -1.2066478556
C       -0.5337231026   -0.3325585449   -0.7259438544
H       -0.6623562016    0.5895616873   -0.1995829876
H        0.0547023486   -2.3204610003   -1.5898543573
C        0.2739347952    1.7418364026    1.4527272128
N        1.1120782578    1.7118465512    2.2693018429
6    
Image 5/11, Energy =  -169.0394819838 (+9.187 kcal/mol)
C       -0.2032139996   -1.3173338367   -1.1147822437
C       -0.6383245473   -0.2596404252   -0.7656187994
H       -0.8848829721    0.6786986667   -0.3334885790
H        0.2372063704   -2.2366008519   -1.3624239783
C        0.3015052289    1.6582290077    1.4161019937
N        1.1877099201    1.4766474393    2.1602116072
6    
Image 6/11, Energy =  -169.0321012799 (+13.819 kcal/mol)
C       -0.1698311680   -1.2190235547   -1.0176395717
C       -0.7334530119   -0.1888992465   -0.7987538329
H       -1.1152345159    0.7433806054   -0.4861224693
H        0.4137137796   -2.0857175364   -1.1026685152
C        0.3506786553    1.4653306424    1.3406174629
N        1.2541262611    1.2849290905    2.0645669264
6    
Image 7/11, Energy =  -169.0169244362 (+23.342 kcal/mol)
C       -0.1765141327   -1.1346334230   -0.9652372296
C       -0.7440943678   -0.1031654718   -0.7429514919
H       -1.2799856146    0.7833050868   -0.5959396873
H        0.5419225176   -1.8900698348   -0.8582976755
C        0.4024800374    1.1744895644    1.1815185924
N        1.2561915600    1.1700740794    1.9809074921
6    
Image 8/11, Energy =  -168.9961574546 (+36.374 kcal/mol)
C       -0.2355953510   -1.1101772373   -1.0037654249
C       -0.6129557261    0.0034686159   -0.5503846268
H       -1.3198063494    0.7835202625   -0.6277287248
H        0.5796638458   -1.7415617762   -0.7213553658
C        0.4219587727    0.9067626152    1.0207957617
N        1.1667348080    1.1579875210    1.8824383807
6    
Image 9/11, Energy =  -169.0161372888 (+23.836 kcal/mol)
C       -0.2570212986   -1.0816859149   -1.0033983907
C       -0.5023749588    0.0853011585   -0.3937789873
H       -1.2985896890    0.7760361832   -0.6183625258
H        0.5870385795   -1.7037451412   -0.6858386368
C        0.3873141094    0.7932581270    0.9122775055
N        1.0836332574    1.1308355886    1.7891010351
6    
Image 10/11, Energy =  -169.0450280988 (+5.707 kcal/mol)
C       -0.2621557661   -1.0375648484   -0.9849831760
C       -0.4394340900    0.1449100356   -0.3146855633
H       -1.2368126204    0.8200720516   -0.5929104463
H        0.6029896476   -1.5857282444   -0.5513988649
C        0.3482180203    0.6332852387    0.7796681386
N        0.9871948086    1.0250257668    1.6643099119
