6    
Image 0/11, Energy =  -169.0541225047 (+0.000 kcal/mol)
C       -0.3739981687   -1.4835649798   -1.4070811137
C       -0.1593894936   -0.6267231344   -0.5957044914
H        0.0347237090    0.1461263812    0.1365769974
H       -0.5620255952   -2.2351986645   -2.1185513169
C        0.4238299506    1.6832116562    1.5959377344
N        0.6368595980    2.5161487414    2.3888221955
6    
Image 1/11, Energy =  -169.0532563922 (+0.543 kcal/mol)
C       -0.3471036787   -1.4738329459   -1.3720425264
C       -0.2673372614   -0.5380254313   -0.6293366562
H       -0.1436429414    0.2800559399    0.0660722638
H       -0.3989575874   -2.3010123850   -2.0144572588
C        0.3837383610    1.6787301548    1.5396532376
N        0.7733031075    2.3540846681    2.4101109435
6    
Image 2/11, Energy =  -169.0510203313 (+1.947 kcal/mol)
C       -0.3171849090   -1.4549663185   -1.3277887605
C       -0.3740610165   -0.4571818345   -0.6676602042
H       -0.3254664394    0.4005321160   -0.0162719538
H       -0.2335298934   -2.3371434487   -1.8863371282
C        0.3548596601    1.6771759016    1.4940349717
N        0.8953825976    2.1715835851    2.4040230771
6    
Image 3/11, Energy =  -169.0476297087 (+4.074 kcal/mol)
C       -0.2835194767   -1.4223528503   -1.2699785817
C       -0.4774035847   -0.3837766999   -0.7070893383
H       -0.5120665226    0.5084255563   -0.1112782607
H       -0.0677674451   -2.3367181458   -1.7321484028
C        0.3435118544    1.6605168898    1.4517838687
N        0.9972451742    1.9739052512    2.3687107155
6    
Image 4/11, Energy =  -169.0430853209 (+6.926 kcal/mol)
C       -0.2483288375   -1.3726645976   -1.2004559515
C       -0.5743766613   -0.3167830427   -0.7432327970
H       -0.7038203080    0.6032280350   -0.2194844089
H        0.0959561660   -2.2962483499   -1.5516067119
C        0.3524927343    1.6115209300    1.4056123643
N        1.0780769065    1.7709470264    2.3091675049
6    
Image 5/11, Energy =  -169.0371331933 (+10.661 kcal/mol)
C       -0.2160472993   -1.3050082850   -1.1207065680
C       -0.6588937794   -0.2517680640   -0.7714335059
H       -0.9001746197    0.6834961502   -0.3389366264
H        0.2555434604   -2.2107219547   -1.3446122801
C        0.3792560622    1.5135185934    1.3441065352
N        1.1403161764    1.5704835613    2.2315824442
6    
Image 6/11, Energy =  -169.0284564296 (+16.106 kcal/mol)
C       -0.1960698521   -1.2243154491   -1.0431591539
C       -0.7116298645   -0.1823950016   -0.7710637982
H       -1.0884056183    0.7463520181   -0.4602166559
H        0.4021630196   -2.0771697178   -1.1175679763
C        0.4142467633    1.3510457878    1.2539817238
N        1.1796955534    1.3864823636    2.1380258591
6    
Image 7/11, Energy =  -169.0121859126 (+26.316 kcal/mol)
C       -0.2058302884   -1.1561018396   -1.0025224132
C       -0.6929339582   -0.0985528320   -0.6990101216
H       -1.2319051341    0.7824740634   -0.5599038004
H        0.5120375071   -1.9118400197   -0.9038336301
C        0.4404811356    1.1304291147    1.1342932697
N        1.1781507399    1.2535915141    2.0309766940
6    
Image 8/11, Energy =  -168.9962084442 (+36.342 kcal/mol)
C       -0.2430333323   -1.1179215774   -1.0086360493
C       -0.5986722874    0.0007320838   -0.5503231867
H       -1.3000052682    0.7864477835   -0.6166728708
H        0.5691849669   -1.7627309211   -0.7493733159
C        0.4440042168    0.9107129972    1.0102657760
N        1.1285217067    1.1827596348    1.9147396450
6    
Image 9/11, Energy =  -169.0187257267 (+22.212 kcal/mol)
C       -0.2615954869   -1.0838031697   -1.0048183434
C       -0.4887869470    0.0880273440   -0.3937241585
H       -1.2785985503    0.7880258722   -0.6088309231
H        0.5823401998   -1.7061004638   -0.6883181474
C        0.3961556685    0.7807995957    0.8965749784
N        1.0504851191    1.1330508220    1.7991165927
6    
Image 10/11, Energy =  -169.0450280987 (+5.707 kcal/mol)
C       -0.2621558455   -1.0375648643   -0.9849831972
C       -0.4394724183    0.1448813965   -0.3146451553
H       -1.2369288594    0.8199852189   -0.5927880212
H        0.6030705059   -1.5856678970   -0.5514840624
C        0.3482331706    0.6332965578    0.7796522209
N        0.9872534521    1.0250695880    1.6642482151
