6    
Image 0/11, Energy =  -169.0541225047 (+0.000 kcal/mol)
C       -0.3739981687   -1.4835649798   -1.4070811137
C       -0.1593894936   -0.6267231344   -0.5957044914
H        0.0347237090    0.1461263812    0.1365769974
H       -0.5620255952   -2.2351986645   -2.1185513169
C        0.4238299506    1.6832116562    1.5959377344
N        0.6368595980    2.5161487414    2.3888221955
6    
Image 1/11, Energy =  -169.0523827371 (+1.092 kcal/mol)
C       -0.3631170250   -1.4617893657   -1.3595557603
C       -0.2532066298   -0.5181213261   -0.6362466568
H       -0.1172933394    0.2738866003    0.0751934392
H       -0.4149752394   -2.2792488775   -2.0103532231
C        0.4401289410    1.5846619788    1.5675745459
N        0.7084632954    2.4006109901    2.3633876567
6    
Image 2/11, Energy =  -169.0489830906 (+3.225 kcal/mol)
C       -0.3416326810   -1.4414027459   -1.3233194399
C       -0.3529539659   -0.4359661094   -0.6796483378
H       -0.2728620970    0.3903562711   -0.0018867477
H       -0.2740842287   -2.3126396899   -1.8954377798
C        0.4628577982    1.5016547815    1.5537784351
N        0.7786751760    2.2979974917    2.3465138689
6    
Image 3/11, Energy =  -169.0446783046 (+5.926 kcal/mol)
C       -0.3016818761   -1.4116437631   -1.2786413317
C       -0.4582931530   -0.3726750047   -0.7105928232
H       -0.4642544541    0.5021507252   -0.1048698672
H       -0.1204072088   -2.3227979957   -1.7576587325
C        0.4781012204    1.4409209361    1.5104082304
N        0.8665354693    2.1640451022    2.3413545224
6    
Image 4/11, Energy =  -169.0398676613 (+8.945 kcal/mol)
C       -0.2540747291   -1.3655213907   -1.2074890006
C       -0.5574988797   -0.3144319004   -0.7451568588
H       -0.6802855579    0.5918583153   -0.2132585210
H        0.0435918887   -2.2939309097   -1.5923141302
C        0.4780855023    1.4109457338    1.4268817858
N        0.9701817713    1.9710801540    2.3313367236
6    
Image 5/11, Energy =  -169.0344460212 (+12.347 kcal/mol)
C       -0.2120436162   -1.3072585991   -1.1233451037
C       -0.6385144672   -0.2555230898   -0.7556341320
H       -0.9007062300    0.6638892684   -0.3364484987
H        0.2107194579   -2.2135907826   -1.3974812883
C        0.4758238583    1.3856148789    1.3299182654
N        1.0647209943    1.7268683286    2.2829907570
6    
Image 6/11, Energy =  -169.0276556813 (+16.608 kcal/mol)
C       -0.1845205609   -1.2340204494   -1.0340235086
C       -0.6924710397   -0.2005946436   -0.7372173490
H       -1.0818896083    0.7178070618   -0.4522136275
H        0.3602585167   -2.0969834476   -1.1971226899
C        0.4763450414    1.3349996665    1.2288072838
N        1.1222776508    1.4787918157    2.1917698907
6    
Image 7/11, Energy =  -169.0159579235 (+23.949 kcal/mol)
C       -0.1825889103   -1.1625092730   -0.9514825069
C       -0.6982363399   -0.1248162815   -0.6807392042
H       -1.2184219892    0.7587240394   -0.5412018178
H        0.4936073938   -1.9460981211   -0.9892846194
C        0.4661412297    1.2356111967    1.1049959797
N        1.1394986169    1.2390884413    2.0577121666
6    
Image 8/11, Energy =  -168.9951234378 (+37.022 kcal/mol)
C       -0.2097668688   -1.1218896582   -0.9328538643
C       -0.6272955916   -0.0091344285   -0.5487443830
H       -1.2902522120    0.7752642114   -0.6019012963
H        0.5758116948   -1.7903679469   -0.8047280554
C        0.4364355425    1.0556222212    0.9732899617
N        1.1150674353    1.0905056024    1.9149376347
6    
Image 9/11, Energy =  -169.0193004842 (+21.851 kcal/mol)
C       -0.2558712445   -1.0772451581   -0.9564772075
C       -0.4824142749    0.1025578011   -0.3703100486
H       -1.2838721977    0.7697941084   -0.6061137126
H        0.5939523708   -1.7085509233   -0.7144908342
C        0.3877201757    0.8388176899    0.8564147988
N        1.0404851721    1.0746264825    1.7909770013
6    
Image 10/11, Energy =  -169.0450280987 (+5.707 kcal/mol)
C       -0.2621558455   -1.0375648643   -0.9849831972
C       -0.4394724183    0.1448813965   -0.3146451553
H       -1.2369288594    0.8199852189   -0.5927880212
H        0.6030705059   -1.5856678970   -0.5514840624
C        0.3482331706    0.6332965578    0.7796522209
N        0.9872534521    1.0250695880    1.6642482151
