6    
Image 0/11, Energy =  -169.0541225047 (+0.000 kcal/mol)
C       -0.3739981687   -1.4835649798   -1.4070811137
C       -0.1593894936   -0.6267231344   -0.5957044914
H        0.0347237090    0.1461263812    0.1365769974
H       -0.5620255952   -2.2351986645   -2.1185513169
C        0.4238299506    1.6832116562    1.5959377344
N        0.6368595980    2.5161487414    2.3888221955
6    
Image 1/11, Energy =  -169.0532692049 (+0.535 kcal/mol)
C       -0.3481731922   -1.4738314734   -1.3733829228
C       -0.2675285779   -0.5383475171   -0.6307082680
H       -0.1420959994    0.2774787836    0.0663006626
H       -0.4002709649   -2.3009532445   -2.0155323456
C        0.3882928033    1.6757112811    1.5428823809
N        0.7697759305    2.3599421708    2.4104404964
6    
Image 2/11, Energy =  -169.0510447362 (+1.931 kcal/mol)
C       -0.3184281568   -1.4549465244   -1.3309384728
C       -0.3751559788   -0.4588645932   -0.6683453106
H       -0.3226363142    0.3969024607   -0.0164957981
H       -0.2359862279   -2.3370119944   -1.8884980600
C        0.3619812679    1.6717562138    1.4978555396
N        0.8902254092    2.1821644386    2.4064221039
6    
Image 3/11, Energy =  -169.0476588683 (+4.056 kcal/mol)
C       -0.2850915766   -1.4220775393   -1.2756120404
C       -0.4787387336   -0.3869797897   -0.7062459030
H       -0.5081859257    0.5047679354   -0.1112090080
H       -0.0711026507   -2.3374412165   -1.7350938441
C        0.3514845051    1.6541815982    1.4542036266
N        0.9916343807    1.9875490132    2.3739571695
6    
Image 4/11, Energy =  -169.0431738398 (+6.870 kcal/mol)
C       -0.2508979274   -1.3746711552   -1.2053838791
C       -0.5738977296   -0.3199835913   -0.7431185998
H       -0.6987448448    0.5991872593   -0.2172831903
H        0.0917125095   -2.2983471521   -1.5574480000
C        0.3592901959    1.6081964300    1.4064054701
N        1.0725377962    1.7856182106    2.3168281988
6    
Image 5/11, Energy =  -169.0373157302 (+10.546 kcal/mol)
C       -0.2191906906   -1.3093084342   -1.1249452583
C       -0.6565926801   -0.2553683630   -0.7710452230
H       -0.8931486821    0.6793778744   -0.3346082676
H        0.2501475550   -2.2148067276   -1.3539405203
C        0.3849304635    1.5149731936    1.3441303207
N        1.1338540346    1.5851324580    2.2404089474
6    
Image 6/11, Energy =  -169.0287666692 (+15.911 kcal/mol)
C       -0.1982001693   -1.2283136261   -1.0466148816
C       -0.7115297143   -0.1858685202   -0.7716232638
H       -1.0831890330    0.7436942152   -0.4559345356
H        0.3987766429   -2.0817662416   -1.1247319701
C        0.4193431940    1.3586865595    1.2529134356
N        1.1747990807    1.3935676143    2.1459912139
6    
Image 7/11, Energy =  -169.0123752960 (+26.197 kcal/mol)
C       -0.2075847164   -1.1578437384   -1.0034373385
C       -0.6937021473   -0.0993884452   -0.7007735719
H       -1.2330298097    0.7808908235   -0.5593346355
H        0.5127189434   -1.9108372436   -0.9023868397
C        0.4452158840    1.1371755138    1.1310524236
N        1.1763818480    1.2500030908    2.0348799603
6    
Image 8/11, Energy =  -168.9961859351 (+36.356 kcal/mol)
C       -0.2443798540   -1.1184988884   -1.0084568184
C       -0.5973436243    0.0022729924   -0.5493895865
H       -1.3019719658    0.7849530037   -0.6168548104
H        0.5708921544   -1.7582499722   -0.7448549764
C        0.4450901929    0.9139911504    1.0048427966
N        1.1277130992    1.1755317149    1.9147133935
6    
Image 9/11, Energy =  -169.0193313805 (+21.832 kcal/mol)
C       -0.2632371891   -1.0838423273   -1.0053228072
C       -0.4865322744    0.0902806645   -0.3919970203
H       -1.2801194651    0.7858797017   -0.6106377623
H        0.5836070276   -1.7025265357   -0.6837849607
C        0.3963526146    0.7821792899    0.8930760394
N        1.0499292893    1.1280292075    1.7986665098
6    
Image 10/11, Energy =  -169.0450280987 (+5.707 kcal/mol)
C       -0.2621558455   -1.0375648643   -0.9849831972
C       -0.4394724183    0.1448813965   -0.3146451553
H       -1.2369288594    0.8199852189   -0.5927880212
H        0.6030705059   -1.5856678970   -0.5514840624
C        0.3482331706    0.6332965578    0.7796522209
N        0.9872534521    1.0250695880    1.6642482151
